SandboxData_C2S7_20210305/C2S7N02020/scenario_006/case.raw
0,100.0,33,0,0,60.0
GRID OPTIMIZATION COMPETITION CHALLENGE 2
INPUT DATA FILES ARE RAW JSON CON
1,'ADAMS 1 1',69.0,1,1,1,1,1.00349498,-20.451352,1.1,0.9,1.1,0.9
2,'ADAMS 2 1',69.0,1,1,1,1,1.0131048,-21.697911,1.1,0.9,1.1,0.9
3,'ADAMS 3 1',69.0,1,1,1,1,0.99683499,-18.297481,1.1,0.9,1.1,0.9
4,'ALEXANDRIA~1',69.0,1,1,1,1,1.01951504,-23.049527,1.1,0.9,1.1,0.9
5,'ALEXANDRIA~2',69.0,1,1,1,1,1.01949465,-23.051161,1.1,0.9,1.1,0.9
6,'ALEXANDRIA~3',69.0,1,1,1,1,1.02249134,-22.194437,1.1,0.9,1.1,0.9
7,'ANTIOCH 1 1',138.0,1,1,1,1,1.01484811,-23.153754,1.1,0.9,1.1,0.9
8,'ANTIOCH 1 2',69.0,1,1,1,1,1.01489627,-24.835739,1.1,0.9,1.1,0.9
9,'ANTIOCH 1 3',138.0,1,1,1,1,1.0150522,-23.082197,1.1,0.9,1.1,0.9
10,'ANTIOCH 2 1',138.0,1,1,1,1,1.01617026,-21.905556,1.1,0.9,1.1,0.9
11,'ANTIOCH 2 2',69.0,1,1,1,1,1.00618875,-24.355029,1.1,0.9,1.1,0.9
12,'ANTIOCH 3 1',69.0,1,1,1,1,1.00559974,-24.110744,1.1,0.9,1.1,0.9
13,'ANTIOCH 4 1',138.0,1,1,1,1,1.01736736,-22.260155,1.1,0.9,1.1,0.9
14,'ANTIOCH 4 2',69.0,1,1,1,1,1.00468147,-24.720874,1.1,0.9,1.1,0.9
15,'ANTIOCH 5 1',69.0,1,1,1,1,1.00881779,-25.29584,1.1,0.9,1.1,0.9
16,'ASHLAND CI~1',69.0,1,1,1,1,0.99506146,-19.923298,1.1,0.9,1.1,0.9
17,'ASHLAND CI~2',69.0,1,1,1,1,0.99176222,-20.507547,1.1,0.9,1.1,0.9
18,'ASHLAND CI~3',69.0,1,1,1,1,0.9985683,-19.400935,1.1,0.9,1.1,0.9
19,'ASHLAND CI~4',138.0,1,1,1,1,1.02753842,-16.392775,1.1,0.9,1.1,0.9
20,'ASHLAND CI~5',69.0,1,1,1,1,1.00564539,-18.838437,1.1,0.9,1.1,0.9
21,'ASHLAND CI~6',138.0,1,1,1,1,1.02733076,-16.372175,1.1,0.9,1.1,0.9
22,'BEECHGROVE 1',69.0,1,1,1,1,1.02195907,-24.282832,1.1,0.9,1.1,0.9
23,'BELL BUCKL~1',69.0,1,1,1,1,1.00542045,-26.51462,1.1,0.9,1.1,0.9
24,'BELL BUCKL~2',69.0,1,1,1,1,1.00018001,-26.427223,1.1,0.9,1.1,0.9
25,'BELL BUCKL~3',69.0,1,1,1,1,1.01015997,-24.535564,1.1,0.9,1.1,0.9
26,'BELL BUCKL~4',69.0,1,1,1,1,1.01012456,-24.538641,1.1,0.9,1.1,0.9
27,'BETHPAGE 1 1',69.0,1,1,1,1,1.00824916,-24.821737,1.1,0.9,1.1,0.9
28,'BETHPAGE 1 2',69.0,1,1,1,1,1.00823021,-24.824951,1.1,0.9,1.1,0.9
29,'BETHPAGE 2 1',69.0,1,1,1,1,1.01062143,-23.980943,1.1,0.9,1.1,0.9
30,'BIG ROCK 1',69.0,1,1,1,1,0.99364644,-11.328847,1.1,0.9,1.1,0.9
31,'BON AQUA 1 1',69.0,1,1,1,1,0.99639541,-20.964391,1.1,0.9,1.1,0.9
32,'BON AQUA 2 1',69.0,1,1,1,1,1.00943327,-19.826417,1.1,0.9,1.1,0.9
33,'BON AQUA 3 1',69.0,1,1,1,1,1.02878582,-20.475848,1.1,0.9,1.1,0.9
34,'BRENTWOOD ~1',138.0,1,1,1,1,1.0160867,-19.289648,1.1,0.9,1.1,0.9
35,'BRENTWOOD ~2',69.0,1,1,1,1,1.01373041,-22.586928,1.1,0.9,1.1,0.9
36,'BRENTWOOD ~3',138.0,1,1,1,1,1.01655126,-19.205578,1.1,0.9,1.1,0.9
37,'BRENTWOOD ~4',138.0,1,1,1,1,1.01391399,-19.950559,1.1,0.9,1.1,0.9
38,'BRENTWOOD ~5',69.0,1,1,1,1,1.01505935,-23.652612,1.1,0.9,1.1,0.9
39,'BRENTWOOD ~6',69.0,1,1,1,1,1.01559985,-23.398056,1.1,0.9,1.1,0.9
40,'BRENTWOOD ~7',69.0,1,1,1,1,1.01570475,-23.413228,1.1,0.9,1.1,0.9
41,'BRENTWOOD ~8',69.0,1,1,1,1,1.01334548,-23.212268,1.1,0.9,1.1,0.9
42,'BRENTWOOD ~9',69.0,1,1,1,1,1.00536382,-24.071451,1.1,0.9,1.1,0.9
43,'BRENTWOOD~10',69.0,1,1,1,1,1.00528753,-24.086997,1.1,0.9,1.1,0.9
44,'BURNS 1 1',69.0,1,1,1,1,1.01897109,-20.925058,1.1,0.9,1.1,0.9
45,'BURNS 1 2',69.0,1,1,1,1,1.01899612,-20.922324,1.1,0.9,1.1,0.9
46,'BURNS 2 1',69.0,1,1,1,1,0.98933244,-21.70287,1.1,0.9,1.1,0.9
47,'CARTHAGE 1 1',69.0,1,1,1,1,1.01805437,-23.162592,1.1,0.9,1.1,0.9
48,'CARTHAGE 2 1',69.0,1,1,1,1,1.01860225,-23.278352,1.1,0.9,1.1,0.9
49,'CARTHAGE 2 2',69.0,1,1,1,1,1.0186224,-23.275543,1.1,0.9,1.1,0.9
50,'CARTHAGE 3 1',69.0,1,1,1,1,1.0141896,-23.497519,1.1,0.9,1.1,0.9
51,'CARTHAGE 3 2',69.0,1,1,1,1,1.01412928,-23.504851,1.1,0.9,1.1,0.9
52,'CEDAR HILL~1',69.0,1,1,1,1,0.99878252,-18.461293,1.1,0.9,1.1,0.9
53,'CEDAR HILL~2',69.0,1,1,1,1,0.99694067,-18.423914,1.1,0.9,1.1,0.9
54,'CEDAR HILL~3',69.0,1,1,1,1,0.99692059,-18.425923,1.1,0.9,1.1,0.9
55,'CENTERVILL~1',138.0,1,1,1,1,1.02193332,-16.137533,1.1,0.9,1.1,0.9
56,'CENTERVILL~2',69.0,1,1,1,1,1.0061202,-16.778448,1.1,0.9,1.1,0.9
57,'CENTERVILL~3',138.0,1,1,1,1,1.02185249,-16.144009,1.1,0.9,1.1,0.9
58,'CENTERVILL~4',69.0,1,1,1,1,1.0064081,-15.828721,1.1,0.9,1.1,0.9
59,'CENTERVILL~5',69.0,1,1,1,1,1.00235903,-17.468371,1.1,0.9,1.1,0.9
60,'CHAPEL HIL~1',69.0,1,1,1,1,1.02332377,-25.633545,1.1,0.9,1.1,0.9
61,'CHAPEL HIL~2',69.0,1,1,1,1,1.00629282,-24.967813,1.1,0.9,1.1,0.9
62,'CHAPEL HIL~3',69.0,1,1,1,1,1.03399956,-25.609328,1.1,0.9,1.1,0.9
63,'CHAPMANSBO~1',69.0,1,1,1,1,0.99700832,-18.792002,1.1,0.9,1.1,0.9
64,'CHAPMANSBO~2',69.0,1,1,1,1,1.00877523,-18.415851,1.1,0.9,1.1,0.9
65,'CHARLOTTE ~1',69.0,1,1,1,1,0.99990398,-17.019336,1.1,0.9,1.1,0.9
66,'CHARLOTTE ~2',69.0,1,1,1,1,1.00481868,-16.884217,1.1,0.9,1.1,0.9
67,'CHARLOTTE ~3',69.0,1,1,1,1,1.00066817,-17.49567,1.1,0.9,1.1,0.9
68,'CHRISTIANA~1',69.0,1,1,1,1,1.01433802,-25.851984,1.1,0.9,1.1,0.9
69,'CHRISTIANA~2',69.0,1,1,1,1,1.0259093,-25.160479,1.1,0.9,1.1,0.9
70,'CLARKSVILL~1',138.0,1,1,1,1,1.01212907,-13.840526,1.1,0.9,1.1,0.9
71,'CLARKSVILL~2',69.0,1,1,1,1,1.01022232,-15.102701,1.1,0.9,1.1,0.9
72,'CLARKSVILL~3',138.0,1,1,1,1,1.0120126,-13.860226,1.1,0.9,1.1,0.9
73,'CLARKSVIL~12',138.0,1,1,1,1,1.00539112,-15.749711,1.1,0.9,1.1,0.9
74,'CLARKSVIL~13',69.0,1,1,1,1,0.99122286,-18.552114,1.1,0.9,1.1,0.9
75,'CLARKSVIL~14',138.0,1,1,1,1,1.00563395,-15.726439,1.1,0.9,1.1,0.9
76,'CLARKSVIL~15',345.0,1,1,1,1,1.02795374,-12.39193,1.1,0.9,1.1,0.9
77,'CLARKSVIL~16',138.0,1,1,1,1,1.01774824,-14.386318,1.1,0.9,1.1,0.9
78,'CLARKSVIL~17',69.0,1,1,1,1,1.00285089,-16.533158,1.1,0.9,1.1,0.9
79,'CLARKSVIL~18',69.0,1,1,1,1,0.99933952,-16.305871,1.1,0.9,1.1,0.9
80,'CLARKSVIL~19',69.0,1,1,1,1,0.9935205,-16.167594,1.1,0.9,1.1,0.9
81,'CLARKSVIL~20',69.0,1,1,1,1,0.99451339,-16.961805,1.1,0.9,1.1,0.9
82,'CLARKSVIL~21',138.0,1,1,1,1,1.01106215,-15.097211,1.1,0.9,1.1,0.9
83,'CLARKSVIL~22',69.0,1,1,1,1,0.99472654,-17.003034,1.1,0.9,1.1,0.9
84,'CLARKSVIL~23',138.0,1,1,1,1,1.01121962,-15.086903,1.1,0.9,1.1,0.9
85,'CLARKSVIL~24',138.0,1,1,1,1,1.01652896,-13.949319,1.1,0.9,1.1,0.9
86,'CLARKSVIL~25',69.0,1,1,1,1,1.00433636,-15.730271,1.1,0.9,1.1,0.9
87,'CLARKSVIL~26',138.0,1,1,1,1,1.01639664,-13.96141,1.1,0.9,1.1,0.9
88,'CLARKSVIL~27',138.0,1,1,1,1,1.00986767,-12.437666,1.1,0.9,1.1,0.9
89,'CLARKSVIL~28',69.0,1,1,1,1,0.98781621,-15.621939,1.1,0.9,1.1,0.9
90,'CLARKSVILL~4',138.0,1,1,1,1,1.02038217,-15.604735,1.1,0.9,1.1,0.9
91,'CLARKSVILL~5',69.0,1,1,1,1,1.01541281,-17.637739,1.1,0.9,1.1,0.9
92,'CLARKSVILL~6',138.0,1,1,1,1,1.02051127,-15.584356,1.1,0.9,1.1,0.9
93,'CLARKSVILL~7',69.0,1,1,1,1,0.99977899,-16.676697,1.1,0.9,1.1,0.9
94,'CLARKSVILL~8',69.0,1,1,1,1,0.99984068,-16.669618,1.1,0.9,1.1,0.9
95,'CLARKSVILL~9',69.0,1,1,1,1,0.99494064,-18.568972,1.1,0.9,1.1,0.9
96,'CLARKSVIL~10',138.0,1,1,1,1,1.01499903,-14.688826,1.1,0.9,1.1,0.9
97,'CLARKSVIL~11',69.0,1,1,1,1,1.00442147,-16.078663,1.1,0.9,1.1,0.9
98,'COLLEGE GR~1',69.0,1,1,1,1,1.03724837,-24.842583,1.1,0.9,1.1,0.9
99,'COLLEGE GR~2',69.0,1,1,1,1,1.0319438,-24.884503,1.1,0.9,1.1,0.9
100,'COLLEGE GR~3',69.0,1,1,1,1,1.01422429,-25.536366,1.1,0.9,1.1,0.9
101,'CORNERSVIL~1',69.0,1,1,1,1,1.00546896,-22.439205,1.1,0.9,1.1,0.9
102,'CORNERSVIL~2',69.0,1,1,1,1,1.00545096,-22.441217,1.1,0.9,1.1,0.9
103,'COTTONTOWN~1',69.0,1,1,1,1,1.02400053,-23.903859,1.1,0.9,1.1,0.9
104,'COTTONTOWN~2',69.0,1,1,1,1,1.026088,-26.071546,1.1,0.9,1.1,0.9
105,'CROSS PLAI~1',69.0,1,1,1,1,1.01858568,-25.584733,1.1,0.9,1.1,0.9
106,'CUMBERLAND~7',69.0,1,1,1,1,1.01746392,-11.764411,1.1,0.9,1.1,0.9
107,'CUMBERLAND~8',69.0,1,1,1,1,1.00837672,-16.186401,1.1,0.9,1.1,0.9
108,'CUMBERLAND~9',69.0,1,1,1,1,1.00187874,-16.075646,1.1,0.9,1.1,0.9
109,'CUNNINGHAM 1',69.0,1,1,1,1,0.99758607,-16.829263,1.1,0.9,1.1,0.9
110,'DICKSON 1 1',69.0,1,1,1,1,1.01766837,-19.186935,1.1,0.9,1.1,0.9
111,'DICKSON 1 2',69.0,1,1,1,1,1.0176096,-19.196411,1.1,0.9,1.1,0.9
112,'DICKSON 2 1',138.0,1,1,1,1,1.01936436,-15.800741,1.1,0.9,1.1,0.9
113,'DICKSON 2 2',69.0,1,1,1,1,1.00234687,-17.473832,1.1,0.9,1.1,0.9
114,'DICKSON 2 3',138.0,1,1,1,1,1.01949573,-15.793277,1.1,0.9,1.1,0.9
115,'DICKSON 3 1',138.0,1,1,1,1,1.01902604,-12.499009,1.1,0.9,1.1,0.9
116,'DICKSON 3 2',69.0,1,1,1,1,1.00905931,-14.964562,1.1,0.9,1.1,0.9
117,'DICKSON 4 1',69.0,1,1,1,1,1.00059712,-17.430586,1.1,0.9,1.1,0.9
118,'DOVER 1 1',138.0,1,1,1,1,1.02582633,-9.855388,1.1,0.9,1.1,0.9
119,'DOVER 1 2',69.0,1,1,1,1,1.01472533,-8.527715,1.1,0.9,1.1,0.9
120,'DOVER 1 3',138.0,1,1,1,1,1.02589798,-9.87331,1.1,0.9,1.1,0.9
121,'DOVER 2 1',69.0,1,1,1,1,1.00752699,-9.031489,1.1,0.9,1.1,0.9
122,'DOVER 3 1',69.0,1,1,1,1,1.01735461,-7.794803,1.1,0.9,1.1,0.9
123,'DOVER 3 2',69.0,1,1,1,1,1.01733828,-7.797639,1.1,0.9,1.1,0.9
124,'DOWELLTOWN 1',69.0,1,1,1,1,1.024266,-21.530969,1.1,0.9,1.1,0.9
125,'ERIN 1 1',69.0,1,1,1,1,1.01213729,-13.826623,1.1,0.9,1.1,0.9
126,'ERIN 2 1',69.0,1,1,1,1,0.99973911,-16.419061,1.1,0.9,1.1,0.9
127,'ERIN 3 1',69.0,1,1,1,1,1.01970625,-9.685617,1.1,0.9,1.1,0.9
128,'FAIRVIEW 1 1',69.0,1,1,1,1,0.98588043,-22.734539,1.1,0.9,1.1,0.9
129,'FAIRVIEW 2 1',69.0,1,1,1,1,1.00439608,-22.599361,1.1,0.9,1.1,0.9
130,'FAIRVIEW 3 1',138.0,1,1,1,1,1.02893269,-17.541551,1.1,0.9,1.1,0.9
131,'FAIRVIEW 3 2',69.0,1,1,1,1,1.01387644,-21.395981,1.1,0.9,1.1,0.9
132,'FRANKLIN 1 1',69.0,1,1,1,1,0.9723773,-26.171721,1.1,0.9,1.1,0.9
133,'FRANKLIN 2 1',69.0,1,1,1,1,0.97587883,-25.635585,1.1,0.9,1.1,0.9
134,'FRANKLIN 3 1',138.0,1,1,1,1,0.99820417,-21.162713,1.1,0.9,1.1,0.9
135,'FRANKLIN 3 2',69.0,1,1,1,1,0.96875429,-26.545277,1.1,0.9,1.1,0.9
136,'FRANKLIN 4 1',138.0,1,1,1,1,1.01352429,-19.860452,1.1,0.9,1.1,0.9
137,'FRANKLIN 4 2',69.0,1,1,1,1,0.97641838,-25.760741,1.1,0.9,1.1,0.9
138,'FRANKLIN 5 1',69.0,1,1,1,1,0.98415393,-24.900797,1.1,0.9,1.1,0.9
139,'GALLATIN 1 1',138.0,1,1,1,1,1.02713048,-20.14573,1.1,0.9,1.1,0.9
140,'GALLATIN 1 2',69.0,1,1,1,1,1.0194335,-21.688902,1.1,0.9,1.1,0.9
141,'GALLATIN 2 1',69.0,1,1,1,1,1.02612555,-21.092944,1.1,0.9,1.1,0.9
142,'GALLATIN 2 2',69.0,1,1,1,1,1.02605164,-21.10161,1.1,0.9,1.1,0.9
143,'GALLATIN 3 1',138.0,1,1,1,1,1.03232157,-20.593263,1.1,0.9,1.1,0.9
144,'GALLATIN 3 2',69.0,1,1,1,1,1.0150212,-22.999207,1.1,0.9,1.1,0.9
145,'FRANKLIN 6 1',69.0,1,1,1,1,1.01534593,-23.954537,1.1,0.9,1.1,0.9
146,'FRANKLIN 7 1',69.0,1,1,1,1,1.01754034,-23.638361,1.1,0.9,1.1,0.9
147,'FRANKLIN 8 1',69.0,1,1,1,1,1.01036322,-23.447384,1.1,0.9,1.1,0.9
148,'FRANKLIN 9 1',69.0,1,1,1,1,1.02259409,-24.223554,1.1,0.9,1.1,0.9
149,'FRANKLIN 1~1',69.0,1,1,1,1,1.01197946,-23.073238,1.1,0.9,1.1,0.9
150,'FRANKLIN 1~2',69.0,1,1,1,1,1.01192784,-23.079394,1.1,0.9,1.1,0.9
151,'FRANKLIN 1~3',69.0,1,1,1,1,1.01187897,-22.744912,1.1,0.9,1.1,0.9
152,'FRANKLIN 1~4',69.0,1,1,1,1,1.00743783,-23.164455,1.1,0.9,1.1,0.9
153,'FRANKLIN 1~5',69.0,1,1,1,1,0.96402967,-27.225402,1.1,0.9,1.1,0.9
154,'GOODLETTSV~1',69.0,1,1,1,1,1.03994656,-25.075296,1.1,0.9,1.1,0.9
155,'GOODLETTSV~2',69.0,1,1,1,1,1.00929093,-22.773968,1.1,0.9,1.1,0.9
156,'GOODLETTSV~3',138.0,1,1,1,1,1.022048,-20.925278,1.1,0.9,1.1,0.9
157,'GOODLETTSV~4',69.0,1,1,1,1,1.01194274,-22.900193,1.1,0.9,1.1,0.9
158,'GREENBRIER~1',69.0,1,1,1,1,1.00156498,-20.443687,1.1,0.9,1.1,0.9
159,'GREENBRIER~2',69.0,1,1,1,1,1.00647843,-23.063611,1.1,0.9,1.1,0.9
160,'GREENBRIER~3',69.0,1,1,1,1,1.00712073,-23.666039,1.1,0.9,1.1,0.9
161,'HARTSVILLE~1',69.0,1,1,1,1,1.02022493,-22.947537,1.1,0.9,1.1,0.9
162,'HARTSVILLE~2',138.0,1,1,1,1,1.03181398,-19.749676,1.1,0.9,1.1,0.9
163,'HARTSVILLE~3',69.0,1,1,1,1,1.0277971,-21.914752,1.1,0.9,1.1,0.9
164,'HENDERSONV~1',69.0,1,1,1,1,1.01328599,-22.418341,1.1,0.9,1.1,0.9
165,'HENDERSONV~2',138.0,1,1,1,1,1.02289522,-20.827473,1.1,0.9,1.1,0.9
166,'HENDERSONV~3',69.0,1,1,1,1,1.00532365,-22.603304,1.1,0.9,1.1,0.9
167,'HENDERSONV~4',69.0,1,1,1,1,1.0199945,-22.765492,1.1,0.9,1.1,0.9
168,'HENDERSONV~5',138.0,1,1,1,1,1.0245918,-20.40032,1.1,0.9,1.1,0.9
169,'HENDERSONV~6',69.0,1,1,1,1,1.01668692,-22.11346,1.1,0.9,1.1,0.9
170,'HENDERSONV~7',138.0,1,1,1,1,1.02443337,-20.418765,1.1,0.9,1.1,0.9
171,'HENDERSONV~8',69.0,1,1,1,1,1.0094595,-22.409851,1.1,0.9,1.1,0.9
172,'HERMITAGE ~1',69.0,1,1,1,1,1.00329173,-24.403016,1.1,0.9,1.1,0.9
173,'HERMITAGE ~2',138.0,1,1,1,1,1.01941478,-21.414748,1.1,0.9,1.1,0.9
174,'HERMITAGE ~3',69.0,1,1,1,1,1.00784731,-24.657114,1.1,0.9,1.1,0.9
175,'HERMITAGE ~4',69.0,1,1,1,1,1.00859249,-23.030348,1.1,0.9,1.1,0.9
176,'HERMITAGE ~5',69.0,1,1,1,1,1.01364791,-22.830467,1.1,0.9,1.1,0.9
177,'JOELTON 1 1',69.0,1,1,1,1,0.98594296,-24.457108,1.1,0.9,1.1,0.9
178,'JOELTON 1 2',69.0,1,1,1,1,0.98599237,-24.454198,1.1,0.9,1.1,0.9
179,'JOELTON 2 1',69.0,1,1,1,1,0.99940032,-19.943872,1.1,0.9,1.1,0.9
180,'KINGSTON S~1',69.0,1,1,1,1,0.9920159,-21.362953,1.1,0.9,1.1,0.9
181,'KINGSTON S~2',69.0,1,1,1,1,1.00394893,-21.455981,1.1,0.9,1.1,0.9
182,'KINGSTON S~3',69.0,1,1,1,1,1.0039345,-21.458689,1.1,0.9,1.1,0.9
183,'KINGSTON S~4',69.0,1,1,1,1,0.99190646,-22.013618,1.1,0.9,1.1,0.9
184,'LAFAYETTE ~1',138.0,1,1,1,1,1.02520168,-25.944023,1.1,0.9,1.1,0.9
185,'LAFAYETTE ~2',69.0,1,1,1,1,1.01944399,-26.370363,1.1,0.9,1.1,0.9
186,'LAFAYETTE ~3',138.0,1,1,1,1,1.02525663,-25.941518,1.1,0.9,1.1,0.9
187,'LAFAYETTE ~4',69.0,1,1,1,1,1.0190239,-22.615045,1.1,0.9,1.1,0.9
188,'LAFAYETTE ~5',138.0,1,1,1,1,1.02737343,-25.811872,1.1,0.9,1.1,0.9
189,'LAFAYETTE ~6',69.0,1,1,1,1,1.02172148,-25.698508,1.1,0.9,1.1,0.9
190,'LAFAYETTE ~7',138.0,1,1,1,1,1.02734005,-25.816759,1.1,0.9,1.1,0.9
191,'LASCASSAS ~1',69.0,1,1,1,1,1.01920176,-22.907534,1.1,0.9,1.1,0.9
192,'LASCASSAS ~2',69.0,1,1,1,1,1.03518653,-23.561497,1.1,0.9,1.1,0.9
193,'LA VERGNE ~1',69.0,1,1,1,1,1.01725471,-23.040059,1.1,0.9,1.1,0.9
194,'LA VERGNE ~2',69.0,1,1,1,1,1.0123682,-24.832777,1.1,0.9,1.1,0.9
195,'LA VERGNE ~3',69.0,1,1,1,1,1.00947201,-24.8831,1.1,0.9,1.1,0.9
196,'LA VERGNE ~4',69.0,1,1,1,1,1.02733159,-25.243249,1.1,0.9,1.1,0.9
197,'LEBANON 1 1',138.0,1,1,1,1,1.02934265,-20.599591,1.1,0.9,1.1,0.9
198,'LEBANON 1 2',69.0,1,1,1,1,1.02742445,-21.814729,1.1,0.9,1.1,0.9
199,'LEBANON 1 3',138.0,1,1,1,1,1.02925622,-20.613858,1.1,0.9,1.1,0.9
200,'LEBANON 2 1',138.0,1,1,1,1,1.02691567,-21.211769,1.1,0.9,1.1,0.9
...
0 / END OF BUS DATA BEGIN LOAD DATA
1,'1',1,1,1,3.953,0.37,0.0,0.0,0.0,0.0,1,1,0
2,'1',1,1,1,2.436,0.81,0.0,0.0,0.0,0.0,1,1,0
3,'1',1,1,1,4.77,1.332,0.0,0.0,0.0,0.0,1,1,0
5,'1',1,1,1,3.07,1.077,0.0,0.0,0.0,0.0,1,1,0
6,'1',1,1,1,2.555,0.263,0.0,0.0,0.0,0.0,1,1,0
8,'1',1,1,1,30.606,4.558,0.0,0.0,0.0,0.0,1,1,0
11,'1',1,1,1,21.53,6.78,0.0,0.0,0.0,0.0,1,1,0
12,'1',1,1,1,46.308,7.918,0.0,0.0,0.0,0.0,1,1,0
14,'1',1,1,1,50.97,11.745,0.0,0.0,0.0,0.0,1,1,0
15,'1',1,1,1,33.98,8.27,0.0,0.0,0.0,0.0,1,1,0
16,'1',1,1,1,9.793,1.113,0.0,0.0,0.0,0.0,1,1,0
17,'1',1,1,1,9.61,4.327,0.0,0.0,0.0,0.0,1,1,0
18,'1',1,1,1,16.75,10.827,0.0,0.0,0.0,0.0,1,1,0
20,'1',1,1,1,8.163,2.346,0.0,0.0,0.0,0.0,1,1,0
22,'1',1,1,1,4.66,1.641,0.0,0.0,0.0,0.0,1,1,0
23,'1',1,1,1,2.765,0.565,0.0,0.0,0.0,0.0,1,1,0
24,'1',1,1,1,5.544,1.856,0.0,0.0,0.0,0.0,1,1,0
26,'1',1,1,1,2.753,0.543,0.0,0.0,0.0,0.0,1,1,0
28,'1',1,1,1,5.198,0.45,0.0,0.0,0.0,0.0,1,1,0
29,'1',1,1,1,6.601,1.567,0.0,0.0,0.0,0.0,1,1,0
30,'1',1,1,1,7.992,4.014,0.0,0.0,0.0,0.0,1,1,0
31,'1',1,1,1,3.397,0.535,0.0,0.0,0.0,0.0,1,1,0
32,'1',1,1,1,15.09,5.535,0.0,0.0,0.0,0.0,1,1,0
33,'1',1,1,1,7.715,0.772,0.0,0.0,0.0,0.0,1,1,0
35,'1',1,1,1,24.68,2.807,0.0,0.0,0.0,0.0,1,1,0
38,'1',1,1,1,15.3,7.818,0.0,0.0,0.0,0.0,1,1,0
40,'1',1,1,1,18.701,0.595,0.0,0.0,0.0,0.0,1,1,0
41,'1',1,1,1,22.437,6.203,0.0,0.0,0.0,0.0,1,1,0
43,'1',1,1,1,24.005,1.845,0.0,0.0,0.0,0.0,1,1,0
44,'1',1,1,1,4.423,1.106,0.0,0.0,0.0,0.0,1,1,0
46,'1',1,1,1,8.424,4.738,0.0,0.0,0.0,0.0,1,1,0
47,'1',1,1,1,5.895,1.987,0.0,0.0,0.0,0.0,1,1,0
48,'1',1,1,1,4.714,0.815,0.0,0.0,0.0,0.0,1,1,0
51,'1',1,1,1,11.63,2.506,0.0,0.0,0.0,0.0,1,1,0
52,'1',1,1,1,5.453,0.407,0.0,0.0,0.0,0.0,1,1,0
54,'1',1,1,1,3.345,0.98,0.0,0.0,0.0,0.0,1,1,0
57,'1',1,1,1,11.894,4.264,0.0,0.0,0.0,0.0,1,1,0
58,'1',1,1,1,10.14,3.78,0.0,0.0,0.0,0.0,1,1,0
59,'1',1,1,1,8.069,2.053,0.0,0.0,0.0,0.0,1,1,0
60,'1',1,1,1,2.88,0.595,0.0,0.0,0.0,0.0,1,1,0
61,'1',1,1,1,5.004,2.37,0.0,0.0,0.0,0.0,1,1,0
62,'1',1,1,1,3.124,0.651,0.0,0.0,0.0,0.0,1,1,0
63,'1',1,1,1,3.918,0.522,0.0,0.0,0.0,0.0,1,1,0
64,'1',1,1,1,3.26,0.44,0.0,0.0,0.0,0.0,1,1,0
65,'1',1,1,1,5.973,1.423,0.0,0.0,0.0,0.0,1,1,0
66,'1',1,1,1,4.958,1.054,0.0,0.0,0.0,0.0,1,1,0
67,'1',1,1,1,2.557,0.262,0.0,0.0,0.0,0.0,1,1,0
68,'1',1,1,1,8.21,3.032,0.0,0.0,0.0,0.0,1,1,0
69,'1',1,1,1,4.819,1.947,0.0,0.0,0.0,0.0,1,1,0
72,'1',1,1,1,30.612,3.762,0.0,0.0,0.0,0.0,1,1,0
74,'1',1,1,1,43.8,17.145,0.0,0.0,0.0,0.0,1,1,0
78,'1',1,1,1,28.233,9.388,0.0,0.0,0.0,0.0,1,1,0
79,'1',1,1,1,22.57,9.716,0.0,0.0,0.0,0.0,1,1,0
80,'1',1,1,1,26.382,7.536,0.0,0.0,0.0,0.0,1,1,0
81,'1',1,1,1,34.8,8.15,0.0,0.0,0.0,0.0,1,1,0
83,'1',1,1,1,26.018,5.032,0.0,0.0,0.0,0.0,1,1,0
87,'1',1,1,1,20.88,7.458,0.0,0.0,0.0,0.0,1,1,0
89,'1',1,1,1,52.2,8.415,0.0,0.0,0.0,0.0,1,1,0
91,'1',1,1,1,12.042,1.545,0.0,0.0,0.0,0.0,1,1,0
93,'1',1,1,1,25.96,12.35,0.0,0.0,0.0,0.0,1,1,0
95,'1',1,1,1,17.585,0.826,0.0,0.0,0.0,0.0,1,1,0
97,'1',1,1,1,24.417,9.179,0.0,0.0,0.0,0.0,1,1,0
98,'1',1,1,1,3.929,0.618,0.0,0.0,0.0,0.0,1,1,0
99,'1',1,1,1,2.868,0.546,0.0,0.0,0.0,0.0,1,1,0
100,'1',1,1,1,3.619,1.331,0.0,0.0,0.0,0.0,1,1,0
102,'1',1,1,1,3.654,0.864,0.0,0.0,0.0,0.0,1,1,0
103,'1',1,1,1,3.774,1.518,0.0,0.0,0.0,0.0,1,1,0
104,'1',1,1,1,15.167,3.28,0.0,0.0,0.0,0.0,1,1,0
105,'1',1,1,1,4.395,2.202,0.0,0.0,0.0,0.0,1,1,0
106,'1',1,1,1,3.75,0.786,0.0,0.0,0.0,0.0,1,1,0
107,'1',1,1,1,5.296,0.639,0.0,0.0,0.0,0.0,1,1,0
108,'1',1,1,1,8.466,0.577,0.0,0.0,0.0,0.0,1,1,0
109,'1',1,1,1,5.803,2.466,0.0,0.0,0.0,0.0,1,1,0
111,'1',1,1,1,16.798,1.224,0.0,0.0,0.0,0.0,1,1,0
113,'1',1,1,1,15.816,5.05,0.0,0.0,0.0,0.0,1,1,0
116,'1',1,1,1,17.57,5.83,0.0,0.0,0.0,0.0,1,1,0
117,'1',1,1,1,16.984,4.708,0.0,0.0,0.0,0.0,1,1,0
119,'1',1,1,1,17.34,6.27,0.0,0.0,0.0,0.0,1,1,0
121,'1',1,1,1,5.067,1.254,0.0,0.0,0.0,0.0,1,1,0
123,'1',1,1,1,4.489,0.585,0.0,0.0,0.0,0.0,1,1,0
124,'1',1,1,1,9.226,3.408,0.0,0.0,0.0,0.0,1,1,0
125,'1',1,1,1,4.464,0.852,0.0,0.0,0.0,0.0,1,1,0
126,'1',1,1,1,2.463,0.777,0.0,0.0,0.0,0.0,1,1,0
127,'1',1,1,1,4.849,0.807,0.0,0.0,0.0,0.0,1,1,0
128,'1',1,1,1,13.97,8.223,0.0,0.0,0.0,0.0,1,1,0
129,'1',1,1,1,9.384,0.897,0.0,0.0,0.0,0.0,1,1,0
131,'1',1,1,1,13.347,5.106,0.0,0.0,0.0,0.0,1,1,0
132,'1',1,1,1,22.56,2.985,0.0,0.0,0.0,0.0,1,1,0
133,'1',1,1,1,37.53,14.505,0.0,0.0,0.0,0.0,1,1,0
135,'1',1,1,1,31.502,7.504,0.0,0.0,0.0,0.0,1,1,0
137,'1',1,1,1,25.02,4.04,0.0,0.0,0.0,0.0,1,1,0
138,'1',1,1,1,20.24,3.843,0.0,0.0,0.0,0.0,1,1,0
140,'1',1,1,1,46.748,3.137,0.0,0.0,0.0,0.0,1,1,0
142,'1',1,1,1,16.132,3.715,0.0,0.0,0.0,0.0,1,1,0
144,'1',1,1,1,24.334,8.178,0.0,0.0,0.0,0.0,1,1,0
145,'1',1,1,1,15.37,4.21,0.0,0.0,0.0,0.0,1,1,0
146,'1',1,1,1,22.43,4.13,0.0,0.0,0.0,0.0,1,1,0
147,'1',1,1,1,21.806,3.703,0.0,0.0,0.0,0.0,1,1,0
148,'1',1,1,1,9.222,2.748,0.0,0.0,0.0,0.0,1,1,0
150,'1',1,1,1,11.22,1.919,0.0,0.0,0.0,0.0,1,1,0
151,'1',1,1,1,11.22,8.552,0.0,0.0,0.0,0.0,1,1,0
152,'1',1,1,1,7.774,0.165,0.0,0.0,0.0,0.0,1,1,0
153,'1',1,1,1,16.367,2.639,0.0,0.0,0.0,0.0,1,1,0
154,'1',1,1,1,20.461,6.442,0.0,0.0,0.0,0.0,1,1,0
155,'1',1,1,1,10.045,2.547,0.0,0.0,0.0,0.0,1,1,0
157,'1',1,1,1,13.813,3.594,0.0,0.0,0.0,0.0,1,1,0
158,'1',1,1,1,10.782,3.996,0.0,0.0,0.0,0.0,1,1,0
159,'1',1,1,1,17.35,2.939,0.0,0.0,0.0,0.0,1,1,0
160,'1',1,1,1,11.57,1.65,0.0,0.0,0.0,0.0,1,1,0
161,'1',1,1,1,10.47,3.73,0.0,0.0,0.0,0.0,1,1,0
163,'1',1,1,1,7.242,2.478,0.0,0.0,0.0,0.0,1,1,0
164,'1',1,1,1,34.916,14.302,0.0,0.0,0.0,0.0,1,1,0
166,'1',1,1,1,28.15,16.802,0.0,0.0,0.0,0.0,1,1,0
167,'1',1,1,1,30.091,2.657,0.0,0.0,0.0,0.0,1,1,0
170,'1',1,1,1,33.578,6.43,0.0,0.0,0.0,0.0,1,1,0
171,'1',1,1,1,29.796,13.191,0.0,0.0,0.0,0.0,1,1,0
172,'1',1,1,1,20.787,3.458,0.0,0.0,0.0,0.0,1,1,0
174,'1',1,1,1,13.74,0.666,0.0,0.0,0.0,0.0,1,1,0
175,'1',1,1,1,12.27,8.964,0.0,0.0,0.0,0.0,1,1,0
176,'1',1,1,1,20.076,5.479,0.0,0.0,0.0,0.0,1,1,0
177,'1',1,1,1,5.101,2.933,0.0,0.0,0.0,0.0,1,1,0
179,'1',1,1,1,7.062,1.423,0.0,0.0,0.0,0.0,1,1,0
180,'1',1,1,1,3.555,1.082,0.0,0.0,0.0,0.0,1,1,0
182,'1',1,1,1,4.764,0.477,0.0,0.0,0.0,0.0,1,1,0
183,'1',1,1,1,8.6,2.19,0.0,0.0,0.0,0.0,1,1,0
185,'1',1,1,1,12.3,1.125,0.0,0.0,0.0,0.0,1,1,0
187,'1',1,1,1,11.43,1.707,0.0,0.0,0.0,0.0,1,1,0
190,'1',1,1,1,8.862,1.324,0.0,0.0,0.0,0.0,1,1,0
191,'1',1,1,1,6.379,1.557,0.0,0.0,0.0,0.0,1,1,0
192,'1',1,1,1,2.346,0.442,0.0,0.0,0.0,0.0,1,1,0
193,'1',1,1,1,15.701,2.185,0.0,0.0,0.0,0.0,1,1,0
194,'1',1,1,1,13.529,10.523,0.0,0.0,0.0,0.0,1,1,0
195,'1',1,1,1,18.724,6.692,0.0,0.0,0.0,0.0,1,1,0
196,'1',1,1,1,30.72,2.55,0.0,0.0,0.0,0.0,1,1,0
199,'1',1,1,1,26.259,3.025,0.0,0.0,0.0,0.0,1,1,0
202,'1',1,1,1,29.95,12.51,0.0,0.0,0.0,0.0,1,1,0
203,'1',1,1,1,17.762,4.012,0.0,0.0,0.0,0.0,1,1,0
205,'1',1,1,1,17.97,3.462,0.0,0.0,0.0,0.0,1,1,0
207,'1',1,1,1,6.0,1.966,0.0,0.0,0.0,0.0,1,1,0
209,'1',1,1,1,8.817,2.663,0.0,0.0,0.0,0.0,1,1,0
210,'1',1,1,1,8.779,3.801,0.0,0.0,0.0,0.0,1,1,0
212,'1',1,1,1,22.705,5.09,0.0,0.0,0.0,0.0,1,1,0
214,'1',1,1,1,11.129,2.576,0.0,0.0,0.0,0.0,1,1,0
217,'1',1,1,1,16.171,2.644,0.0,0.0,0.0,0.0,1,1,0
220,'1',1,1,1,10.444,0.696,0.0,0.0,0.0,0.0,1,1,0
221,'1',1,1,1,5.726,1.873,0.0,0.0,0.0,0.0,1,1,0
222,'1',1,1,1,2.862,1.83,0.0,0.0,0.0,0.0,1,1,0
223,'1',1,1,1,2.414,0.501,0.0,0.0,0.0,0.0,1,1,0
224,'1',1,1,1,5.364,1.629,0.0,0.0,0.0,0.0,1,1,0
225,'1',1,1,1,4.614,2.028,0.0,0.0,0.0,0.0,1,1,0
226,'1',1,1,1,3.438,0.782,0.0,0.0,0.0,0.0,1,1,0
227,'1',1,1,1,3.342,0.9,0.0,0.0,0.0,0.0,1,1,0
231,'1',1,1,1,9.101,2.11,0.0,0.0,0.0,0.0,1,1,0
232,'1',1,1,1,31.68,13.875,0.0,0.0,0.0,0.0,1,1,0
233,'1',1,1,1,23.081,5.639,0.0,0.0,0.0,0.0,1,1,0
236,'1',1,1,1,10.948,0.772,0.0,0.0,0.0,0.0,1,1,0
237,'1',1,1,1,31.68,11.16,0.0,0.0,0.0,0.0,1,1,0
240,'1',1,1,1,34.87,9.909,0.0,0.0,0.0,0.0,1,1,0
241,'1',1,1,1,20.217,3.267,0.0,0.0,0.0,0.0,1,1,0
242,'1',1,1,1,21.502,12.213,0.0,0.0,0.0,0.0,1,1,0
243,'1',1,1,1,22.848,6.875,0.0,0.0,0.0,0.0,1,1,0
244,'1',1,1,1,17.996,5.214,0.0,0.0,0.0,0.0,1,1,0
245,'1',1,1,1,24.16,4.71,0.0,0.0,0.0,0.0,1,1,0
246,'1',1,1,1,35.681,5.391,0.0,0.0,0.0,0.0,1,1,0
247,'1',1,1,1,30.777,8.255,0.0,0.0,0.0,0.0,1,1,0
249,'1',1,1,1,14.801,1.501,0.0,0.0,0.0,0.0,1,1,0
250,'1',1,1,1,13.34,0.962,0.0,0.0,0.0,0.0,1,1,0
251,'1',1,1,1,11.622,3.069,0.0,0.0,0.0,0.0,1,1,0
252,'1',1,1,1,30.022,10.115,0.0,0.0,0.0,0.0,1,1,0
253,'1',1,1,1,8.004,2.941,0.0,0.0,0.0,0.0,1,1,0
255,'1',1,1,1,28.072,7.228,0.0,0.0,0.0,0.0,1,1,0
256,'1',1,1,1,26.087,9.98,0.0,0.0,0.0,0.0,1,1,0
258,'1',1,1,1,34.043,13.587,0.0,0.0,0.0,0.0,1,1,0
260,'1',1,1,1,25.33,5.31,0.0,0.0,0.0,0.0,1,1,0
261,'1',1,1,1,27.312,1.476,0.0,0.0,0.0,0.0,1,1,0
262,'1',1,1,1,36.229,13.098,0.0,0.0,0.0,0.0,1,1,0
263,'1',1,1,1,23.708,4.801,0.0,0.0,0.0,0.0,1,1,0
264,'1',1,1,1,25.53,4.02,0.0,0.0,0.0,0.0,1,1,0
267,'1',1,1,1,38.3,8.341,0.0,0.0,0.0,0.0,1,1,0
270,'1',1,1,1,24.372,5.625,0.0,0.0,0.0,0.0,1,1,0
272,'1',1,1,1,28.643,10.387,0.0,0.0,0.0,0.0,1,1,0
275,'1',1,1,1,20.186,3.429,0.0,0.0,0.0,0.0,1,1,0
276,'1',1,1,1,29.136,2.421,0.0,0.0,0.0,0.0,1,1,0
278,'1',1,1,1,26.454,4.015,0.0,0.0,0.0,0.0,1,1,0
279,'1',1,1,1,5.369,1.026,0.0,0.0,0.0,0.0,1,1,0
280,'1',1,1,1,5.352,0.467,0.0,0.0,0.0,0.0,1,1,0
281,'1',1,1,1,7.505,2.289,0.0,0.0,0.0,0.0,1,1,0
283,'1',1,1,1,12.42,2.472,0.0,0.0,0.0,0.0,1,1,0
284,'1',1,1,1,7.51,1.862,0.0,0.0,0.0,0.0,1,1,0
286,'1',1,1,1,2.764,0.679,0.0,0.0,0.0,0.0,1,1,0
287,'1',1,1,1,2.359,0.66,0.0,0.0,0.0,0.0,1,1,0
288,'1',1,1,1,11.984,2.734,0.0,0.0,0.0,0.0,1,1,0
289,'1',1,1,1,10.191,2.516,0.0,0.0,0.0,0.0,1,1,0
292,'1',1,1,1,26.739,3.874,0.0,0.0,0.0,0.0,1,1,0
293,'1',1,1,1,1.82,0.531,0.0,0.0,0.0,0.0,1,1,0
294,'1',1,1,1,6.13,0.89,0.0,0.0,0.0,0.0,1,1,0
295,'1',1,1,1,3.624,1.715,0.0,0.0,0.0,0.0,1,1,0
296,'1',1,1,1,3.929,0.569,0.0,0.0,0.0,0.0,1,1,0
298,'1',1,1,1,6.22,0.36,0.0,0.0,0.0,0.0,1,1,0
299,'1',1,1,1,5.103,0.788,0.0,0.0,0.0,0.0,1,1,0
...
0 / END OF LOAD DATA BEGIN FIXED SHUNT DATA
0 / END OF FIXED SHUNT DATA BEGIN GENERATOR DATA
1740,'1',86.425,9.432,52.66,-31.596,1.04,0,124.16,0.0,1.0,0.0,0.0,1.0,1,100.0,103.47,26.81,1,1.0,0,1.0,0,1.0,0,1.0,0,1.0
1741,'1',86.425,8.939,52.66,-31.596,1.04,0,124.16,0.0,1.0,0.0,0.0,1.0,1,100.0,103.47,50.92,1,1.0,0,1.0,0,1.0,0,1.0,0,1.0
1742,'1',86.425,8.433,52.66,-31.596,1.04,0,124.16,0.0,1.0,0.0,0.0,1.0,1,100.0,103.47,14.34,1,1.0,0,1.0,0,1.0,0,1.0,0,1.0
1743,'1',86.425,10.78,52.66,-31.596,1.04,0,124.16,0.0,1.0,0.0,0.0,1.0,1,100.0,103.47,18.78,1,1.0,0,1.0,0,1.0,0,1.0,0,1.0
1744,'1',86.425,8.263,52.66,-31.596,1.04,0,124.16,0.0,1.0,0.0,0.0,1.0,1,100.0,103.47,43.26,1,1.0,0,1.0,0,1.0,0,1.0,0,1.0
1745,'1',86.425,10.837,52.66,-31.596,1.04,0,124.16,0.0,1.0,0.0,0.0,1.0,1,100.0,103.47,28.95,1,1.0,0,1.0,0,1.0,0,1.0,0,1.0
1747,'1',24.093,-6.059,7.508,-7.508,1.04,0,39.96,0.0,1.0,0.0,0.0,1.0,1,100.0,25.028,0.0,1,1.0,0,1.0,0,1.0,0,1.0,0,1.0
1748,'1',25.0,7.78,7.78,-7.78,1.04,0,39.96,0.0,1.0,0.0,0.0,1.0,1,100.0,25.935,0.0,1,1.0,0,1.0,0,1.0,0,1.0,0,1.0
1748,'2',26.752,8.076,8.306,-8.306,1.04,0,39.96,0.0,1.0,0.0,0.0,1.0,1,100.0,27.687,0.0,1,1.0,0,1.0,0,1.0,0,1.0,0,1.0
1750,'1',15.576,4.915,4.915,-4.915,1.04,0,34.56,0.0,1.0,0.0,0.0,1.0,1,100.0,16.385,0.0,1,1.0,0,1.0,0,1.0,0,1.0,0,1.0
1751,'1',24.056,8.308,8.308,-8.308,1.04,0,34.56,0.0,1.0,0.0,0.0,1.0,1,100.0,27.694,0.0,1,1.0,0,1.0,0,1.0,0,1.0,0,1.0
1757,'1',256.94,-2.539,605.8,-363.48,1.04,1754,1560.0,0.0,1.0,0.0,0.0,1.0,1,100.0,1300.0,256.94,1,1.0,0,1.0,0,1.0,0,1.0,0,1.0
1758,'1',527.04,54.453,605.8,-363.48,1.04,1754,1560.0,0.0,1.0,0.0,0.0,1.0,1,100.0,1300.0,527.04,1,1.0,0,1.0,0,1.0,0,1.0,0,1.0
1761,'1',13.197,4.436,4.436,-4.436,1.04,0,18.96,0.0,1.0,0.0,0.0,1.0,1,100.0,14.787,0.0,1,1.0,0,1.0,0,1.0,0,1.0,0,1.0
1764,'1',15.84,4.971,4.971,-4.971,1.04,0,31.17,0.0,1.0,0.0,0.0,1.0,1,100.0,16.569,0.0,1,1.0,0,1.0,0,1.0,0,1.0,0,1.0
1764,'2',21.7,7.794,7.794,-7.794,1.04,0,31.17,0.0,1.0,0.0,0.0,1.0,1,100.0,25.98,0.0,1,1.0,0,1.0,0,1.0,0,1.0,0,1.0
1764,'3',12.261,3.897,3.897,-3.897,1.04,0,31.17,0.0,1.0,0.0,0.0,1.0,1,100.0,12.99,0.0,1,1.0,0,1.0,0,1.0,0,1.0,0,1.0
1764,'4',12.261,3.897,3.897,-3.897,1.04,0,31.17,0.0,1.0,0.0,0.0,1.0,1,100.0,12.99,0.0,1,1.0,0,1.0,0,1.0,0,1.0,0,1.0
1768,'1',49.44,8.958,75.0,-75.0,1.04,0,42.36,0.0,1.0,0.0,0.0,1.0,1,100.0,250.0,0.0,1,1.0,0,1.0,0,1.0,0,1.0,0,1.0
1768,'2',244.185,8.958,73.683,-73.683,1.04,0,42.36,0.0,1.0,0.0,0.0,1.0,1,100.0,245.611,0.0,1,1.0,0,1.0,0,1.0,0,1.0,0,1.0
1768,'3',29.163,8.958,75.0,-75.0,1.04,0,42.36,0.0,1.0,0.0,0.0,1.0,1,100.0,250.0,0.0,1,1.0,0,1.0,0,1.0,0,1.0,0,1.0
1770,'1',4.176,2.55,2.55,-1.53,1.04,0,6.0,0.0,1.0,0.0,0.0,1.0,1,100.0,5.0,0.52,1,1.0,0,1.0,0,1.0,0,1.0,0,1.0
1774,'1',3.065,0.896,1.71,-1.026,1.04,0,4.4,0.0,1.0,0.0,0.0,1.0,1,100.0,3.67,0.96,1,1.0,0,1.0,0,1.0,0,1.0,0,1.0
1774,'2',3.065,0.896,1.71,-1.026,1.04,0,4.4,0.0,1.0,0.0,0.0,1.0,1,100.0,3.67,1.63,1,1.0,0,1.0,0,1.0,0,1.0,0,1.0
1775,'1',3.065,0.842,1.71,-1.026,1.04,0,4.4,0.0,1.0,0.0,0.0,1.0,1,100.0,3.67,1.42,1,1.0,0,1.0,0,1.0,0,1.0,0,1.0
1775,'2',3.065,0.842,1.71,-1.026,1.04,0,4.4,0.0,1.0,0.0,0.0,1.0,1,100.0,3.67,0.73,1,1.0,0,1.0,0,1.0,0,1.0,0,1.0
1776,'1',3.065,0.608,1.71,-1.026,1.04,0,4.4,0.0,1.0,0.0,0.0,1.0,1,100.0,3.67,0.5,1,1.0,0,1.0,0,1.0,0,1.0,0,1.0
1776,'2',3.065,0.608,1.71,-1.026,1.04,0,4.4,0.0,1.0,0.0,0.0,1.0,1,100.0,3.67,1.21,1,1.0,0,1.0,0,1.0,0,1.0,0,1.0
1780,'1',2.631,0.821,0.821,-0.821,1.04,0,4.56,0.0,1.0,0.0,0.0,1.0,1,100.0,2.738,0.0,1,1.0,0,1.0,0,1.0,0,1.0,0,1.0
1781,'1',1.793,0.314,0.57,-0.57,1.04,0,4.56,0.0,1.0,0.0,0.0,1.0,1,100.0,1.9,0.0,1,1.0,0,1.0,0,1.0,0,1.0,0,1.0
1781,'2',3.174,0.314,1.099,-1.099,1.04,0,4.56,0.0,1.0,0.0,0.0,1.0,1,100.0,3.664,0.0,1,1.0,0,1.0,0,1.0,0,1.0,0,1.0
1782,'1',3.174,1.14,1.14,-1.14,1.04,0,4.56,0.0,1.0,0.0,0.0,1.0,1,100.0,3.8,0.0,1,1.0,0,1.0,0,1.0,0,1.0,0,1.0
1782,'2',3.174,1.113,1.113,-1.113,1.04,0,4.56,0.0,1.0,0.0,0.0,1.0,1,100.0,3.711,0.0,1,1.0,0,1.0,0,1.0,0,1.0,0,1.0
1786,'1',275.639,-0.916,153.78,-92.268,1.03,1784,396.0,0.0,1.0,0.0,0.0,1.0,1,100.0,330.0,49.13,1,1.0,0,1.0,0,1.0,0,1.0,0,1.0
1787,'1',275.639,-0.916,153.78,-92.268,1.03,1784,396.0,0.0,1.0,0.0,0.0,1.0,1,100.0,330.0,96.28,1,1.0,0,1.0,0,1.0,0,1.0,0,1.0
1788,'1',267.386,-0.916,153.78,-92.268,1.03,1784,396.0,0.0,1.0,0.0,0.0,1.0,1,100.0,330.0,91.44,1,1.0,0,1.0,0,1.0,0,1.0,0,1.0
1790,'1',14.016,4.455,4.455,-4.455,1.04,0,35.64,0.0,1.0,0.0,0.0,1.0,1,100.0,14.85,0.0,1,1.0,0,1.0,0,1.0,0,1.0,0,1.0
1790,'2',16.609,5.233,5.233,-5.233,1.04,0,35.64,0.0,1.0,0.0,0.0,1.0,1,100.0,17.443,0.0,1,1.0,0,1.0,0,1.0,0,1.0,0,1.0
1793,'1',59.952,7.102,56.26,-33.756,1.04,0,132.64,0.0,1.0,0.0,0.0,1.0,1,100.0,110.53,45.79,1,1.0,0,1.0,0,1.0,0,1.0,0,1.0
1794,'1',92.322,7.144,56.26,-33.756,1.04,0,132.64,0.0,1.0,0.0,0.0,1.0,1,100.0,110.53,47.9,1,1.0,0,1.0,0,1.0,0,1.0,0,1.0
1795,'1',53.731,8.771,56.26,-33.756,1.04,0,132.64,0.0,1.0,0.0,0.0,1.0,1,100.0,110.53,14.2,1,1.0,0,1.0,0,1.0,0,1.0,0,1.0
1796,'1',70.972,5.552,56.26,-33.756,1.04,0,132.64,0.0,1.0,0.0,0.0,1.0,1,100.0,110.53,25.13,1,1.0,0,1.0,0,1.0,0,1.0,0,1.0
1797,'1',92.322,6.765,56.26,-33.756,1.04,0,132.64,0.0,1.0,0.0,0.0,1.0,1,100.0,110.53,33.77,1,1.0,0,1.0,0,1.0,0,1.0,0,1.0
1798,'1',92.322,10.184,56.26,-33.756,1.04,0,132.64,0.0,1.0,0.0,0.0,1.0,1,100.0,110.53,27.65,1,1.0,0,1.0,0,1.0,0,1.0,0,1.0
1804,'1',37.655,10.407,11.85,-11.85,1.04,0,78.84,0.0,1.0,0.0,0.0,1.0,1,100.0,39.499,0.0,1,1.0,0,1.0,0,1.0,0,1.0,0,1.0
1805,'1',49.082,5.335,15.278,-15.278,1.04,0,78.84,0.0,1.0,0.0,0.0,1.0,1,100.0,50.926,0.0,1,1.0,0,1.0,0,1.0,0,1.0,0,1.0
1809,'1',96.056,-3.475,58.53,-35.118,1.04,0,138.0,0.0,1.0,0.0,0.0,1.0,1,100.0,115.0,25.26,1,1.0,0,1.0,0,1.0,0,1.0,0,1.0
1810,'1',96.056,-2.39,58.53,-35.118,1.04,0,138.0,0.0,1.0,0.0,0.0,1.0,1,100.0,115.0,54.87,1,1.0,0,1.0,0,1.0,0,1.0,0,1.0
1811,'1',96.056,0.159,58.53,-40.971,1.041,1806,138.0,0.0,1.0,0.0,0.0,1.0,1,100.0,115.0,27.73,1,1.0,0,1.0,0,1.0,0,1.0,0,1.0
1812,'1',96.056,-2.172,58.53,-35.118,1.04,0,138.0,0.0,1.0,0.0,0.0,1.0,1,100.0,115.0,31.11,1,1.0,0,1.0,0,1.0,0,1.0,0,1.0
1818,'1',581.055,53.255,467.32,-280.392,1.04,1814,1523.88,0.0,1.0,0.0,0.0,1.0,1,100.0,1269.9,409.47,1,1.0,0,1.0,0,1.0,0,1.0,0,1.0
1820,'1',43.601,5.985,15.041,-15.041,1.04,0,62.64,0.0,1.0,0.0,0.0,1.0,1,100.0,50.135,0.0,1,1.0,0,1.0,0,1.0,0,1.0,0,1.0
1820,'2',35.272,5.985,11.021,-11.021,1.04,0,62.64,0.0,1.0,0.0,0.0,1.0,1,100.0,36.737,0.0,1,1.0,0,1.0,0,1.0,0,1.0,0,1.0
1820,'3',28.849,5.985,9.094,-9.094,1.04,0,62.64,0.0,1.0,0.0,0.0,1.0,1,100.0,30.315,0.0,1,1.0,0,1.0,0,1.0,0,1.0,0,1.0
1824,'1',20.553,6.393,6.393,-6.393,1.04,0,32.4,0.0,1.0,0.0,0.0,1.0,1,100.0,21.311,0.0,1,1.0,0,1.0,0,1.0,0,1.0,1,1.0
1826,'1',8.707,2.754,2.754,-2.754,1.04,0,20.22,0.0,1.0,0.0,0.0,1.0,1,100.0,9.18,0.0,1,1.0,0,1.0,0,1.0,0,1.0,0,1.0
1826,'2',11.005,3.443,3.443,-3.443,1.04,0,20.22,0.0,1.0,0.0,0.0,1.0,1,100.0,11.478,0.0,1,1.0,0,1.0,0,1.0,0,1.0,0,1.0
1829,'1',29.168,10.292,10.292,-10.292,1.04,0,41.904,0.0,1.0,0.0,0.0,1.0,1,100.0,34.305,0.0,1,1.0,0,1.0,0,1.0,0,1.0,0,1.0
1829,'2',29.168,10.476,10.476,-10.476,1.04,0,41.904,0.0,1.0,0.0,0.0,1.0,1,100.0,34.92,0.0,1,1.0,0,1.0,0,1.0,0,1.0,0,1.0
1830,'1',29.168,-1.004,9.072,-9.072,1.04,0,41.904,0.0,1.0,0.0,0.0,1.0,1,100.0,30.24,0.0,1,1.0,0,1.0,0,1.0,0,1.0,0,1.0
1830,'2',29.168,-1.004,9.812,-9.812,1.04,0,41.904,0.0,1.0,0.0,0.0,1.0,1,100.0,32.707,0.0,1,1.0,0,1.0,0,1.0,0,1.0,0,1.0
1830,'3',29.168,-1.004,10.476,-10.476,1.04,0,41.904,0.0,1.0,0.0,0.0,1.0,1,100.0,34.92,0.0,1,1.0,0,1.0,0,1.0,0,1.0,0,1.0
1832,'1',31.49,4.925,10.003,-10.003,1.04,0,45.24,0.0,1.0,0.0,0.0,1.0,1,100.0,33.343,0.0,1,1.0,0,1.0,0,1.0,0,1.0,0,1.0
1832,'2',18.689,4.925,5.924,-5.924,1.04,0,45.24,0.0,1.0,0.0,0.0,1.0,1,100.0,19.747,0.0,1,1.0,0,1.0,0,1.0,0,1.0,0,1.0
1832,'3',31.49,4.925,11.015,-11.015,1.04,0,45.24,0.0,1.0,0.0,0.0,1.0,1,100.0,36.715,0.0,1,1.0,0,1.0,0,1.0,0,1.0,0,1.0
1832,'4',30.873,4.925,9.58,-9.58,1.04,0,45.24,0.0,1.0,0.0,0.0,1.0,1,100.0,31.932,0.0,1,1.0,0,1.0,0,1.0,0,1.0,0,1.0
1838,'1',170.995,0.518,126.86,-76.116,1.04,0,299.07,0.0,1.0,0.0,0.0,1.0,1,100.0,249.22,100.54,1,1.0,0,1.0,0,1.0,0,1.0,0,1.0
1839,'1',208.165,7.654,126.86,-76.116,1.04,1835,299.07,0.0,1.0,0.0,0.0,1.0,1,100.0,249.22,26.43,1,1.0,0,1.0,0,1.0,0,1.0,0,1.0
1840,'1',208.165,1.939,126.86,-76.116,1.04,0,299.07,0.0,1.0,0.0,0.0,1.0,1,100.0,249.22,109.59,1,1.0,0,1.0,0,1.0,0,1.0,0,1.0
1841,'1',208.165,-0.653,126.86,-76.116,1.04,0,299.07,0.0,1.0,0.0,0.0,1.0,1,100.0,249.22,106.81,1,1.0,0,1.0,0,1.0,0,1.0,0,1.0
1845,'1',158.092,3.959,96.34,-57.804,1.04,0,227.12,0.0,1.0,0.0,0.0,1.0,1,100.0,189.27,24.72,1,1.0,0,1.0,0,1.0,0,1.0,0,1.0
1846,'1',158.092,3.435,96.34,-57.804,1.04,0,227.12,0.0,1.0,0.0,0.0,1.0,1,100.0,189.27,33.63,1,1.0,0,1.0,0,1.0,0,1.0,0,1.0
1847,'1',158.092,4.228,96.34,-57.804,1.04,0,227.12,0.0,1.0,0.0,0.0,1.0,1,100.0,189.27,40.85,1,1.0,0,1.0,0,1.0,0,1.0,0,1.0
1851,'1',198.519,-4.766,120.97,-72.582,1.04,0,285.2,0.0,1.0,0.0,0.0,1.0,1,100.0,237.67,82.61,1,1.0,0,1.0,0,1.0,0,1.0,0,1.0
1852,'1',198.519,6.621,120.97,-72.582,1.041,1850,285.2,0.0,1.0,0.0,0.0,1.0,1,100.0,237.67,85.08,1,1.0,0,1.0,0,1.0,0,1.0,0,1.0
1853,'1',198.519,6.621,120.97,-72.582,1.041,1850,285.2,0.0,1.0,0.0,0.0,1.0,1,100.0,237.67,27.85,1,1.0,0,1.0,0,1.0,0,1.0,0,1.0
1854,'1',198.519,6.621,120.97,-72.582,1.041,1850,285.2,0.0,1.0,0.0,0.0,1.0,1,100.0,237.67,109.63,1,1.0,0,1.0,0,1.0,0,1.0,0,1.0
1855,'1',198.519,-2.19,120.97,-72.582,1.04,0,285.2,0.0,1.0,0.0,0.0,1.0,1,100.0,237.67,83.36,1,1.0,0,1.0,0,1.0,0,1.0,0,1.0
1856,'1',198.519,6.621,120.97,-72.582,1.041,1850,285.2,0.0,1.0,0.0,0.0,1.0,1,100.0,237.67,55.32,1,1.0,0,1.0,0,1.0,0,1.0,0,1.0
1858,'1',15.035,3.111,9.16,-5.496,1.04,0,21.6,0.0,1.0,0.0,0.0,1.0,1,100.0,18.0,8.14,1,1.0,0,1.0,0,1.0,0,1.0,0,1.0
1864,'1',142.105,12.74,86.6,-60.62,1.04,1861,204.16,0.0,1.0,0.0,0.0,1.0,1,100.0,170.13,75.2,1,1.0,0,1.0,0,1.0,0,1.0,0,1.0
1865,'1',142.105,12.74,86.6,-60.62,1.04,1861,204.16,0.0,1.0,0.0,0.0,1.0,1,100.0,170.13,24.19,1,1.0,0,1.0,0,1.0,0,1.0,0,1.0
1866,'1',142.105,1.09,86.6,-51.96,1.04,0,204.16,0.0,1.0,0.0,0.0,1.0,1,100.0,170.13,78.63,1,1.0,0,1.0,0,1.0,0,1.0,0,1.0
1867,'1',142.105,12.74,86.6,-60.62,1.04,1861,204.16,0.0,1.0,0.0,0.0,1.0,1,100.0,170.13,56.6,1,1.0,0,1.0,0,1.0,0,1.0,0,1.0
1868,'1',142.105,12.74,86.6,-51.96,1.04,1861,204.16,0.0,1.0,0.0,0.0,1.0,1,100.0,170.13,43.7,1,1.0,0,1.0,0,1.0,0,1.0,0,1.0
1869,'1',142.105,-0.535,86.6,-51.96,1.04,0,204.16,0.0,1.0,0.0,0.0,1.0,1,100.0,170.13,65.0,1,1.0,0,1.0,0,1.0,0,1.0,0,1.0
1871,'1',9.332,-0.338,2.897,-2.897,1.04,0,13.8,0.0,1.0,0.0,0.0,1.0,1,100.0,9.655,0.0,1,1.0,0,1.0,0,1.0,0,1.0,0,1.0
1871,'2',9.606,-0.338,3.45,-3.45,1.04,0,13.8,0.0,1.0,0.0,0.0,1.0,1,100.0,11.5,0.0,1,1.0,0,1.0,0,1.0,0,1.0,0,1.0
1873,'1',10.847,3.394,3.394,-3.394,1.04,0,19.92,0.0,1.0,0.0,0.0,1.0,1,100.0,11.313,0.0,1,1.0,0,1.0,0,1.0,0,1.0,0,1.0
1873,'2',7.834,2.49,2.49,-2.49,1.04,0,19.92,0.0,1.0,0.0,0.0,1.0,1,100.0,8.3,0.0,1,1.0,0,1.0,0,1.0,0,1.0,0,1.0
1874,'1',10.337,3.241,3.241,-3.241,1.04,0,19.92,0.0,1.0,0.0,0.0,1.0,1,100.0,10.803,0.0,1,1.0,0,1.0,0,1.0,0,1.0,0,1.0
1876,'1',20.821,6.489,6.489,-6.489,1.04,0,34.56,0.0,1.0,0.0,0.0,1.0,1,100.0,21.629,0.0,1,1.0,0,1.0,0,1.0,0,1.0,0,1.0
1880,'1',14.886,2.622,4.501,-4.501,1.04,0,5.04,0.0,1.0,0.0,0.0,1.0,1,100.0,15.004,0.0,1,1.0,0,1.0,0,1.0,0,1.0,0,1.0
1885,'1',304.81,19.416,95.051,-95.051,1.038,1882,514.08,0.0,1.0,0.0,0.0,1.0,1,100.0,316.837,0.0,1,1.0,0,1.0,0,1.0,0,1.0,0,1.0
1886,'1',328.665,19.416,102.208,-102.208,1.038,1882,514.08,0.0,1.0,0.0,0.0,1.0,1,100.0,340.693,0.0,1,1.0,0,1.0,0,1.0,0,1.0,0,1.0
1887,'1',333.714,19.416,103.722,-103.722,1.038,1882,514.08,0.0,1.0,0.0,0.0,1.0,1,100.0,345.742,0.0,1,1.0,0,1.0,0,1.0,0,1.0,0,1.0
1888,'1',202.172,19.416,64.26,-64.26,1.038,1882,514.08,0.0,1.0,0.0,0.0,1.0,1,100.0,214.2,0.0,1,1.0,0,1.0,0,1.0,0,1.0,0,1.0
1890,'1',27.357,8.586,8.586,-8.586,1.04,0,54.0,0.0,1.0,0.0,0.0,1.0,1,100.0,28.62,0.0,1,1.0,0,1.0,0,1.0,0,1.0,0,1.0
1891,'1',21.529,6.838,6.838,-6.838,1.04,0,54.0,0.0,1.0,0.0,0.0,1.0,1,100.0,22.792,0.0,1,1.0,0,1.0,0,1.0,0,1.0,0,1.0
1891,'2',26.537,8.34,8.34,-8.34,1.04,0,54.0,0.0,1.0,0.0,0.0,1.0,1,100.0,27.8,0.0,1,1.0,0,1.0,0,1.0,0,1.0,0,1.0
1893,'1',14.019,4.68,4.68,-4.68,1.04,0,11.52,0.0,1.0,0.0,0.0,1.0,1,100.0,15.6,0.0,1,1.0,0,1.0,0,1.0,0,1.0,0,1.0
1898,'1',158.533,28.78,146.23,-87.738,1.04,1895,376.56,0.0,1.0,0.0,0.0,1.0,1,100.0,313.8,106.65,1,1.0,0,1.0,0,1.0,0,1.0,0,1.0
1899,'1',183.453,28.78,146.23,-87.738,1.04,1895,376.56,0.0,1.0,0.0,0.0,1.0,1,100.0,313.8,156.49,1,1.0,0,1.0,0,1.0,0,1.0,0,1.0
1900,'1',168.768,28.78,146.23,-87.738,1.04,1895,376.56,0.0,1.0,0.0,0.0,1.0,1,100.0,313.8,127.12,1,1.0,0,1.0,0,1.0,0,1.0,0,1.0
1901,'1',147.568,28.78,146.23,-87.738,1.04,1895,376.56,0.0,1.0,0.0,0.0,1.0,1,100.0,313.8,84.72,1,1.0,0,1.0,0,1.0,0,1.0,0,1.0
1904,'1',15.035,4.01,5.4,-5.4,1.04,0,21.6,0.0,1.0,0.0,0.0,1.0,1,100.0,18.0,0.0,1,1.0,0,1.0,0,1.0,0,1.0,0,1.0
1904,'2',13.141,4.01,4.094,-4.094,1.04,0,21.6,0.0,1.0,0.0,0.0,1.0,1,100.0,13.646,0.0,1,1.0,0,1.0,0,1.0,0,1.0,0,1.0
1904,'3',10.829,3.4,3.4,-3.4,1.04,0,21.6,0.0,1.0,0.0,0.0,1.0,1,100.0,11.335,0.0,1,1.0,0,1.0,0,1.0,0,1.0,0,1.0
1906,'1',5.663,1.8,1.8,-1.8,1.04,0,14.4,0.0,1.0,0.0,0.0,1.0,1,100.0,6.0,0.0,1,1.0,0,1.0,0,1.0,0,1.0,0,1.0
1907,'1',8.626,2.689,2.689,-2.689,1.04,0,14.4,0.0,1.0,0.0,0.0,1.0,1,100.0,8.963,0.0,1,1.0,0,1.0,0,1.0,0,1.0,0,1.0
1907,'2',10.023,3.587,3.587,-3.587,1.04,0,14.4,0.0,1.0,0.0,0.0,1.0,1,100.0,11.958,0.0,1,1.0,0,1.0,0,1.0,0,1.0,0,1.0
1910,'1',30.07,10.135,10.135,-10.135,1.04,0,43.2,0.0,1.0,0.0,0.0,1.0,1,100.0,33.783,0.0,1,1.0,0,1.0,0,1.0,0,1.0,0,1.0
1910,'2',28.486,8.849,8.849,-8.849,1.04,0,43.2,0.0,1.0,0.0,0.0,1.0,1,100.0,29.496,0.0,1,1.0,0,1.0,0,1.0,0,1.0,0,1.0
1913,'1',3.759,1.909,2.29,-1.374,1.04,0,5.4,0.0,1.0,0.0,0.0,1.0,1,100.0,4.5,1.94,1,1.0,0,1.0,0,1.0,0,1.0,0,1.0
1916,'1',22.685,2.764,7.143,-7.143,1.04,0,48.0,0.0,1.0,0.0,0.0,1.0,1,100.0,23.809,0.0,1,1.0,0,1.0,0,1.0,0,1.0,0,1.0
1916,'2',33.411,2.764,11.999,-11.999,1.04,0,48.0,0.0,1.0,0.0,0.0,1.0,1,100.0,39.998,0.0,1,1.0,0,1.0,0,1.0,0,1.0,0,1.0
1916,'3',33.411,2.764,10.586,-10.586,1.04,0,48.0,0.0,1.0,0.0,0.0,1.0,1,100.0,35.288,0.0,1,1.0,0,1.0,0,1.0,0,1.0,0,1.0
1916,'4',33.411,2.764,10.575,-10.575,1.04,0,48.0,0.0,1.0,0.0,0.0,1.0,1,100.0,35.251,0.0,1,1.0,0,1.0,0,1.0,0,1.0,0,1.0
1916,'5',32.569,2.764,10.108,-10.108,1.04,0,48.0,0.0,1.0,0.0,0.0,1.0,1,100.0,33.693,0.0,1,1.0,0,1.0,0,1.0,0,1.0,0,1.0
1916,'6',24.14,2.764,7.579,-7.579,1.04,0,48.0,0.0,1.0,0.0,0.0,1.0,1,100.0,25.263,0.0,1,1.0,0,1.0,0,1.0,0,1.0,0,1.0
1922,'1',320.52,-124.971,442.7,-265.62,1.031,1919,1140.0,0.0,1.0,0.0,0.0,1.0,1,100.0,950.0,320.52,1,1.0,0,1.0,0,1.0,0,1.0,0,1.0
1927,'1',26.021,3.313,8.129,-8.129,1.04,0,45.99,0.0,1.0,0.0,0.0,1.0,1,100.0,27.098,0.0,1,1.0,0,1.0,0,1.0,0,1.0,0,1.0
1927,'2',24.351,3.313,7.628,-7.628,1.04,0,45.99,0.0,1.0,0.0,0.0,1.0,1,100.0,25.427,0.0,1,1.0,0,1.0,0,1.0,0,1.0,0,1.0
1928,'1',20.384,5.687,6.438,-6.438,1.04,0,45.99,0.0,1.0,0.0,0.0,1.0,1,100.0,21.46,0.0,1,1.0,0,1.0,0,1.0,0,1.0,0,1.0
1929,'1',28.306,4.879,8.815,-8.815,1.04,0,45.99,0.0,1.0,0.0,0.0,1.0,1,100.0,29.382,0.0,1,1.0,0,1.0,0,1.0,0,1.0,0,1.0
1931,'1',1.421,0.449,0.449,-0.449,1.04,0,3.18,0.0,1.0,0.0,0.0,1.0,1,100.0,1.495,0.0,1,1.0,0,1.0,0,1.0,0,1.0,0,1.0
1931,'2',1.471,0.464,0.464,-0.464,1.04,0,3.18,0.0,1.0,0.0,0.0,1.0,1,100.0,1.546,0.0,1,1.0,0,1.0,0,1.0,0,1.0,0,1.0
1932,'1',2.145,0.666,0.666,-0.666,1.04,0,3.18,0.0,1.0,0.0,0.0,1.0,1,100.0,2.22,0.0,1,1.0,0,1.0,0,1.0,0,1.0,0,1.0
1932,'2',1.319,0.418,0.418,-0.418,1.04,0,3.18,0.0,1.0,0.0,0.0,1.0,1,100.0,1.393,0.0,1,1.0,0,1.0,0,1.0,0,1.0,0,1.0
1937,'1',1019.448,77.452,449.14,-269.484,1.036,1934,1464.6,0.0,1.0,0.0,0.0,1.0,1,100.0,1220.5,473.43,1,1.0,0,1.0,0,1.0,0,1.0,0,1.0
1938,'1',1019.448,77.452,449.14,-269.484,1.036,1934,1464.6,0.0,1.0,0.0,0.0,1.0,1,100.0,1220.5,379.66,1,1.0,0,1.0,0,1.0,0,1.0,0,1.0
1940,'1',19.086,6.855,6.855,-6.855,1.04,0,27.42,0.0,1.0,0.0,0.0,1.0,1,100.0,22.85,0.0,1,1.0,0,1.0,0,1.0,0,1.0,0,1.0
1941,'1',19.086,6.855,6.855,-6.855,1.04,0,27.42,0.0,1.0,0.0,0.0,1.0,1,100.0,22.85,0.0,1,1.0,0,1.0,0,1.0,0,1.0,0,1.0
1943,'1',1.503,0.84,0.84,-0.504,1.04,0,2.16,0.0,1.0,0.0,0.0,1.0,1,100.0,1.8,0.26,1,1.0,0,1.0,0,1.0,0,1.0,0,1.0
1943,'2',1.503,0.84,0.84,-0.504,1.04,0,2.16,0.0,1.0,0.0,0.0,1.0,1,100.0,1.8,0.87,1,1.0,0,1.0,0,1.0,0,1.0,0,1.0
1946,'1',0.501,0.175,0.175,-0.175,1.04,0,0.72,0.0,1.0,0.0,0.0,1.0,1,100.0,0.584,0.0,1,1.0,0,1.0,0,1.0,0,1.0,1,1.0
1946,'2',0.501,0.166,0.166,-0.166,1.04,0,0.72,0.0,1.0,0.0,0.0,1.0,1,100.0,0.552,0.0,1,1.0,0,1.0,0,1.0,0,1.0,1,1.0
1947,'1',0.501,0.161,0.161,-0.161,1.04,0,0.72,0.0,1.0,0.0,0.0,1.0,1,100.0,0.537,0.0,1,1.0,0,1.0,0,1.0,0,1.0,1,1.0
1952,'1',52.412,12.017,132.03,-79.218,1.037,1949,340.0,0.0,1.0,0.0,0.0,1.0,1,100.0,283.33,37.67,1,1.0,0,1.0,0,1.0,0,1.0,0,1.0
1953,'1',33.18,12.017,132.03,-79.218,1.037,1949,340.0,0.0,1.0,0.0,0.0,1.0,1,100.0,283.33,33.18,1,1.0,0,1.0,0,1.0,0,1.0,0,1.0
1954,'1',75.56,12.017,132.03,-79.218,1.037,1949,340.0,0.0,1.0,0.0,0.0,1.0,1,100.0,283.33,75.56,1,1.0,0,1.0,0,1.0,0,1.0,0,1.0
1955,'1',81.83,12.017,132.03,-79.218,1.037,1949,340.0,0.0,1.0,0.0,0.0,1.0,1,100.0,283.33,81.83,1,1.0,0,1.0,0,1.0,0,1.0,0,1.0
1956,'1',89.23,12.017,132.03,-79.218,1.037,1949,340.0,0.0,1.0,0.0,0.0,1.0,1,100.0,283.33,89.23,1,1.0,0,1.0,0,1.0,0,1.0,0,1.0
1957,'1',50.14,12.017,132.03,-79.218,1.037,1949,340.0,0.0,1.0,0.0,0.0,1.0,1,100.0,283.33,34.64,1,1.0,0,1.0,0,1.0,0,1.0,0,1.0
1960,'1',4.176,2.55,2.55,-1.53,1.04,0,6.0,0.0,1.0,0.0,0.0,1.0,1,100.0,5.0,2.02,1,1.0,0,1.0,0,1.0,0,1.0,0,1.0
1964,'1',17.093,1.166,5.412,-5.412,1.04,0,40.5,0.0,1.0,0.0,0.0,1.0,1,100.0,18.041,0.0,1,1.0,0,1.0,0,1.0,0,1.0,0,1.0
1964,'2',19.758,1.166,6.212,-6.212,1.04,0,40.5,0.0,1.0,0.0,0.0,1.0,1,100.0,20.705,0.0,1,1.0,0,1.0,0,1.0,0,1.0,0,1.0
1965,'1',25.612,1.406,7.968,-7.968,1.04,0,40.5,0.0,1.0,0.0,0.0,1.0,1,100.0,26.559,0.0,1,1.0,0,1.0,0,1.0,0,1.0,0,1.0
1965,'2',28.19,1.406,9.3,-9.3,1.04,0,40.5,0.0,1.0,0.0,0.0,1.0,1,100.0,31.0,0.0,1,1.0,0,1.0,0,1.0,0,1.0,0,1.0
1967,'1',4.343,2.65,2.65,-1.59,1.04,0,6.24,0.0,1.0,0.0,0.0,1.0,1,100.0,5.2,0.68,1,1.0,0,1.0,0,1.0,0,1.0,0,1.0
1967,'2',4.343,2.65,2.65,-1.59,1.04,0,6.24,0.0,1.0,0.0,0.0,1.0,1,100.0,5.2,1.39,1,1.0,0,1.0,0,1.0,0,1.0,0,1.0
1970,'1',2.673,1.63,1.63,-0.978,1.04,0,3.84,0.0,1.0,0.0,0.0,1.0,1,100.0,3.2,0.58,1,1.0,0,1.0,0,1.0,0,1.0,0,1.0
1972,'1',3.065,1.491,1.71,-1.026,1.04,0,4.4,0.0,1.0,0.0,0.0,1.0,1,100.0,3.67,1.46,1,1.0,0,1.0,0,1.0,0,1.0,0,1.0
1972,'2',3.065,1.491,1.71,-1.026,1.04,0,4.4,0.0,1.0,0.0,0.0,1.0,1,100.0,3.67,1.08,1,1.0,0,1.0,0,1.0,0,1.0,0,1.0
1973,'1',3.065,1.348,1.71,-1.026,1.04,0,4.4,0.0,1.0,0.0,0.0,1.0,1,100.0,3.67,1.15,1,1.0,0,1.0,0,1.0,0,1.0,0,1.0
1973,'2',3.065,1.348,1.71,-1.026,1.04,0,4.4,0.0,1.0,0.0,0.0,1.0,1,100.0,3.67,0.83,1,1.0,0,1.0,0,1.0,0,1.0,0,1.0
1974,'1',3.065,0.883,1.71,-1.026,1.04,0,4.4,0.0,1.0,0.0,0.0,1.0,1,100.0,3.67,0.9,1,1.0,0,1.0,0,1.0,0,1.0,0,1.0
1974,'2',3.065,0.883,1.71,-1.026,1.04,0,4.4,0.0,1.0,0.0,0.0,1.0,1,100.0,3.67,1.76,1,1.0,0,1.0,0,1.0,0,1.0,0,1.0
1977,'1',23.685,7.43,7.43,-7.43,1.04,0,46.2,0.0,1.0,0.0,0.0,1.0,1,100.0,24.766,0.0,1,1.0,0,1.0,0,1.0,0,1.0,0,1.0
1979,'1',20.882,11.65,11.65,-6.99,1.04,0,30.0,0.0,1.0,0.0,0.0,1.0,1,100.0,25.0,7.45,1,1.0,0,1.0,0,1.0,0,1.0,0,1.0
1981,'1',168.282,-11.173,102.55,-61.53,1.042,1980,241.76,0.0,1.0,0.0,0.0,1.0,1,100.0,201.47,97.56,1,1.0,0,1.0,0,1.0,0,1.0,0,1.0
1982,'1',134.052,-11.173,102.55,-61.53,1.042,1980,241.76,0.0,1.0,0.0,0.0,1.0,1,100.0,201.47,53.38,1,1.0,0,1.0,0,1.0,0,1.0,0,1.0
1983,'1',109.832,-5.448,102.55,-61.53,1.04,0,241.76,0.0,1.0,0.0,0.0,1.0,1,100.0,201.47,84.57,1,1.0,0,1.0,0,1.0,0,1.0,0,1.0
1985,'1',22.83,7.085,7.085,-7.085,1.04,0,33.6,0.0,1.0,0.0,0.0,1.0,1,100.0,23.616,0.0,1,1.0,0,1.0,0,1.0,0,1.0,0,1.0
1987,'1',15.203,4.57,4.57,-4.57,1.04,0,1.26,0.0,1.0,0.0,0.0,1.0,1,100.0,15.233,0.0,1,1.0,0,1.0,0,1.0,0,1.0,0,1.0
1987,'2',12.443,3.742,3.742,-3.742,1.04,0,1.26,0.0,1.0,0.0,0.0,1.0,1,100.0,12.472,0.0,1,1.0,0,1.0,0,1.0,0,1.0,0,1.0
1993,'1',21.65,2.15,7.776,-7.776,1.04,0,31.11,0.0,1.0,0.0,0.0,1.0,1,100.0,25.92,0.0,1,1.0,0,1.0,0,1.0,0,1.0,0,1.0
1993,'2',21.65,2.15,7.162,-7.162,1.04,0,31.11,0.0,1.0,0.0,0.0,1.0,1,100.0,23.874,0.0,1,1.0,0,1.0,0,1.0,0,1.0,0,1.0
1994,'1',18.803,5.245,5.859,-5.859,1.04,0,31.11,0.0,1.0,0.0,0.0,1.0,1,100.0,19.531,0.0,1,1.0,0,1.0,0,1.0,0,1.0,0,1.0
1994,'2',14.978,4.712,4.712,-4.712,1.04,0,31.11,0.0,1.0,0.0,0.0,1.0,1,100.0,15.705,0.0,1,1.0,0,1.0,0,1.0,0,1.0,0,1.0
1996,'1',24.54,-5.438,13.69,-8.214,1.04,1995,100.0,0.0,1.0,0.0,0.0,1.0,1,100.0,29.38,6.11,1,1.0,0,1.0,0,1.0,0,1.0,0,1.0
1997,'1',24.54,13.69,13.69,-8.214,1.04,0,35.26,0.0,1.0,0.0,0.0,1.0,1,100.0,29.38,3.15,1,1.0,0,1.0,0,1.0,0,1.0,0,1.0
1997,'2',24.54,13.69,13.69,-8.214,1.04,0,35.26,0.0,1.0,0.0,0.0,1.0,1,100.0,29.38,5.59,1,1.0,0,1.0,0,1.0,0,1.0,0,1.0
1997,'3',24.54,13.69,13.69,-8.214,1.04,0,35.26,0.0,1.0,0.0,0.0,1.0,1,100.0,29.38,13.28,1,1.0,0,1.0,0,1.0,0,1.0,0,1.0
1999,'1',24.54,-0.055,13.69,-8.214,1.04,0,35.26,0.0,1.0,0.0,0.0,1.0,1,100.0,29.38,5.04,1,1.0,0,1.0,0,1.0,0,1.0,0,1.0
1999,'2',24.54,-0.055,13.69,-8.214,1.04,0,35.26,0.0,1.0,0.0,0.0,1.0,1,100.0,29.38,4.0,1,1.0,0,1.0,0,1.0,0,1.0,0,1.0
2001,'1',1.671,0.93,0.93,-0.558,1.04,0,2.4,0.0,1.0,0.0,0.0,1.0,1,100.0,2.0,0.95,1,1.0,0,1.0,0,1.0,0,1.0,0,1.0
2001,'2',1.671,0.93,0.93,-0.558,1.04,0,2.4,0.0,1.0,0.0,0.0,1.0,1,100.0,2.0,0.36,1,1.0,0,1.0,0,1.0,0,1.0,0,1.0
2001,'3',1.671,0.93,0.93,-0.558,1.04,0,2.4,0.0,1.0,0.0,0.0,1.0,1,100.0,2.0,0.59,1,1.0,0,1.0,0,1.0,0,1.0,0,1.0
2001,'4',1.671,0.93,0.93,-0.558,1.04,0,2.4,0.0,1.0,0.0,0.0,1.0,1,100.0,2.0,0.48,1,1.0,0,1.0,0,1.0,0,1.0,0,1.0
2001,'5',1.671,0.93,0.93,-0.558,1.04,0,2.4,0.0,1.0,0.0,0.0,1.0,1,100.0,2.0,0.66,1,1.0,0,1.0,0,1.0,0,1.0,0,1.0
2003,'1',13.197,0.146,4.74,-4.74,1.04,0,18.96,0.0,1.0,0.0,0.0,1.0,1,100.0,15.8,0.0,1,1.0,0,1.0,0,1.0,0,1.0,0,1.0
2005,'1',39.091,-0.355,13.009,-13.009,1.04,0,56.16,0.0,1.0,0.0,0.0,1.0,1,100.0,43.363,0.0,1,1.0,0,1.0,0,1.0,0,1.0,0,1.0
2006,'1',36.317,-2.896,11.289,-11.289,1.04,0,56.16,0.0,1.0,0.0,0.0,1.0,1,100.0,37.631,0.0,1,1.0,0,1.0,0,1.0,0,1.0,0,1.0
2009,'1',27.557,8.603,8.603,-8.603,1.04,0,47.88,0.0,1.0,0.0,0.0,1.0,1,100.0,28.677,0.0,1,1.0,0,1.0,0,1.0,0,1.0,0,1.0
2010,'1',14.231,6.159,6.159,-6.159,1.04,0,47.88,0.0,1.0,0.0,0.0,1.0,1,100.0,20.531,0.0,1,1.0,0,1.0,0,1.0,0,1.0,0,1.0
2010,'2',21.513,6.79,6.79,-6.79,1.04,0,47.88,0.0,1.0,0.0,0.0,1.0,1,100.0,22.633,0.0,1,1.0,0,1.0,0,1.0,0,1.0,0,1.0
2010,'3',18.83,5.985,5.985,-5.985,1.04,0,47.88,0.0,1.0,0.0,0.0,1.0,1,100.0,19.95,0.0,1,1.0,0,1.0,0,1.0,0,1.0,0,1.0
2014,'1',119.133,17.98,115.35,-69.21,1.04,2011,297.04,0.0,1.0,0.0,0.0,1.0,1,100.0,247.53,103.69,1,1.0,0,1.0,0,1.0,0,1.0,0,1.0
2015,'1',151.787,0.424,115.35,-69.21,1.04,0,297.04,0.0,1.0,0.0,0.0,1.0,1,100.0,247.53,27.66,1,1.0,0,1.0,0,1.0,0,1.0,0,1.0
2016,'1',206.755,17.98,115.35,-69.21,1.04,2011,297.04,0.0,1.0,0.0,0.0,1.0,1,100.0,247.53,112.93,1,1.0,0,1.0,0,1.0,0,1.0,0,1.0
2017,'1',206.755,17.98,115.35,-69.21,1.04,2011,297.04,0.0,1.0,0.0,0.0,1.0,1,100.0,247.53,48.25,1,1.0,0,1.0,0,1.0,0,1.0,0,1.0
2018,'1',109.385,17.98,115.35,-69.21,1.04,2011,297.04,0.0,1.0,0.0,0.0,1.0,1,100.0,247.53,52.79,1,1.0,0,1.0,0,1.0,0,1.0,0,1.0
2019,'1',115.275,17.98,115.35,-69.21,1.04,2011,297.04,0.0,1.0,0.0,0.0,1.0,1,100.0,247.53,64.57,1,1.0,0,1.0,0,1.0,0,1.0,0,1.0
0 / END OF GENERATOR DATA BEGIN BRANCH DATA
1,95,'1',0.04327,0.10271,0.00256,71.7,71.7,71.7,0.0,0.0,0.0,0.0,1,1,10.87,1,1.0,0,1.0,0,1.0,0,1.0
2,1,'1',0.03074,0.08122,0.00134,69.3,69.3,69.3,0.0,0.0,0.0,0.0,1,1,7.35,1,1.0,0,1.0,0,1.0,0,1.0
3,53,'1',0.02438,0.05724,0.00059,44.8,44.8,44.8,0.0,0.0,0.0,0.0,1,1,4.52,1,1.0,0,1.0,0,1.0,0,1.0
3,67,'1',0.05612,0.17261,0.00395,47.7,47.7,47.7,0.0,0.0,0.0,0.0,1,1,14.89,1,1.0,0,1.0,0,1.0,0,1.0
4,5,'1',0.0003,0.00107,0.0,82.8,82.8,82.8,0.0,0.0,0.0,0.0,1,1,0.0,1,1.0,0,1.0,0,1.0,0,1.0
4,191,'1',0.01607,0.04144,0.01127,54.8,54.8,54.8,0.0,0.0,0.0,0.0,1,1,11.98,1,1.0,0,1.0,0,1.0,0,1.0
4,192,'1',0.05254,0.16625,0.00469,33.0,33.0,33.0,0.0,0.0,0.0,0.0,1,1,15.2,1,1.0,0,1.0,0,1.0,0,1.0
4,201,'1',0.13401,0.31389,0.00527,58.2,58.2,58.2,0.0,0.0,0.0,0.0,1,1,22.58,1,1.0,0,1.0,0,1.0,0,1.0
4,207,'1',0.10204,0.20536,0.00623,45.0,45.0,45.0,0.0,0.0,0.0,0.0,1,1,19.52,1,1.0,0,1.0,0,1.0,0,1.0
4,210,'1',0.05588,0.09338,0.00812,39.0,39.0,39.0,0.0,0.0,0.0,0.0,1,1,14.38,1,1.0,0,1.0,0,1.0,0,1.0
4,276,'1',0.10507,0.22654,0.00602,62.8,62.8,62.8,0.0,0.0,0.0,0.0,1,1,20.02,1,1.0,0,1.0,0,1.0,0,1.0
4,354,'1',0.03809,0.09277,0.00129,54.6,54.6,54.6,0.0,0.0,0.0,0.0,1,1,7.98,1,1.0,0,1.0,0,1.0,0,1.0
6,4,'1',0.02589,0.06365,0.00135,66.2,66.2,66.2,0.0,0.0,0.0,0.0,1,1,5.75,1,1.0,0,1.0,0,1.0,0,1.0
6,124,'1',0.03242,0.09724,0.00154,62.3,62.3,62.3,0.0,0.0,0.0,0.0,1,1,7.29,1,1.0,0,1.0,0,1.0,0,1.0
6,191,'1',0.04859,0.10302,0.0091,58.3,58.3,58.3,0.0,0.0,0.0,0.0,1,1,17.08,1,1.0,0,1.0,0,1.0,0,1.0
7,9,'1',0.00021,0.00114,0.0,414.0,414.0,414.0,0.0,0.0,0.0,0.0,1,1,0.0,1,1.0,0,1.0,0,1.0,0,1.0
8,195,'1',0.00986,0.02697,0.00199,53.1,53.1,53.1,0.0,0.0,0.0,0.0,1,1,4.01,1,1.0,0,1.0,0,1.0,0,1.0
8,196,'1',0.00814,0.01812,0.00374,130.2,130.2,130.2,0.0,0.0,0.0,0.0,1,1,4.54,1,1.0,0,1.0,0,1.0,0,1.0
8,330,'1',0.01447,0.03495,0.00027,57.1,57.1,57.1,0.0,0.0,0.0,0.0,1,1,2.54,1,1.0,0,1.0,0,1.0,0,1.0
9,13,'1',0.00229,0.01313,0.00106,246.1,246.1,246.1,0.0,0.0,0.0,0.0,1,1,2.84,1,1.0,0,1.0,0,1.0,0,1.0
10,173,'1',0.00409,0.02949,0.00252,183.2,183.2,183.2,0.0,0.0,0.0,0.0,1,1,6.39,1,1.0,0,1.0,0,1.0,0,1.0
11,194,'1',0.02793,0.07798,0.00316,53.8,53.8,53.8,0.0,0.0,0.0,0.0,1,1,9.97,1,1.0,0,1.0,0,1.0,0,1.0
11,426,'1',0.00977,0.02571,0.00188,62.4,62.4,62.4,0.0,0.0,0.0,0.0,1,1,4.88,1,1.0,0,1.0,0,1.0,0,1.0
11,439,'1',0.01065,0.02922,0.00073,56.3,56.3,56.3,0.0,0.0,0.0,0.0,1,1,3.81,1,1.0,0,1.0,0,1.0,0,1.0
12,14,'1',0.01389,0.03578,0.0005,60.0,60.0,60.0,0.0,0.0,0.0,0.0,1,1,3.24,1,1.0,0,1.0,0,1.0,0,1.0
12,412,'1',0.03383,0.07323,0.00175,75.0,75.0,75.0,0.0,0.0,0.0,0.0,1,1,7.4,1,1.0,0,1.0,0,1.0,0,1.0
12,412,'2',0.03383,0.07323,0.00175,75.0,75.0,75.0,0.0,0.0,0.0,0.0,1,1,7.4,1,1.0,0,1.0,0,1.0,0,1.0
13,257,'1',0.0087,0.03396,0.03219,214.3,214.3,214.3,0.0,0.0,0.0,0.0,1,1,18.2,1,1.0,0,1.0,0,1.0,0,1.0
13,265,'1',0.00659,0.03908,0.0269,218.8,218.8,218.8,0.0,0.0,0.0,0.0,1,1,17.08,1,1.0,0,1.0,0,1.0,0,1.0
13,329,'1',0.00264,0.01373,0.00772,236.8,236.8,236.8,0.0,0.0,0.0,0.0,1,1,6.99,1,1.0,0,1.0,0,1.0,0,1.0
15,8,'1',0.00891,0.01924,0.00072,74.2,74.2,74.2,0.0,0.0,0.0,0.0,1,1,2.6,1,1.0,0,1.0,0,1.0,0,1.0
15,264,'1',0.00813,0.01726,0.00511,70.3,70.3,70.3,0.0,0.0,0.0,0.0,1,1,6.28,1,1.0,0,1.0,0,1.0,0,1.0
15,323,'1',0.03021,0.07932,0.00127,69.1,69.1,69.1,0.0,0.0,0.0,0.0,1,1,6.6,1,1.0,0,1.0,0,1.0,0,1.0
16,18,'1',0.0149,0.0381,0.00092,65.3,65.3,65.3,0.0,0.0,0.0,0.0,1,1,3.37,1,1.0,0,1.0,0,1.0,0,1.0
17,16,'1',0.0185,0.03503,0.00068,58.2,58.2,58.2,0.0,0.0,0.0,0.0,1,1,2.6,1,1.0,0,1.0,0,1.0,0,1.0
17,63,'1',0.04841,0.09586,0.00166,58.4,58.4,58.4,0.0,0.0,0.0,0.0,1,1,7.98,1,1.0,0,1.0,0,1.0,0,1.0
17,180,'1',0.01114,0.02965,0.01273,80.0,80.0,80.0,0.0,0.0,0.0,0.0,1,1,14.02,1,1.0,0,1.0,0,1.0,0,1.0
19,21,'1',0.00025,0.00116,0.0,165.6,165.6,165.6,0.0,0.0,0.0,0.0,1,1,0.0,1,1.0,0,1.0,0,1.0,0,1.0
20,18,'1',0.01014,0.02702,0.0003,60.7,60.7,60.7,0.0,0.0,0.0,0.0,1,1,2.22,1,1.0,0,1.0,0,1.0,0,1.0
20,64,'1',0.01277,0.03556,0.00503,53.9,53.9,53.9,0.0,0.0,0.0,0.0,1,1,7.72,1,1.0,0,1.0,0,1.0,0,1.0
21,92,'1',0.01189,0.04169,0.01094,193.4,193.4,193.4,0.0,0.0,0.0,0.0,1,1,12.02,1,1.0,0,1.0,0,1.0,0,1.0
22,577,'1',0.046,0.07097,0.00477,56.3,56.3,56.3,0.0,0.0,0.0,0.0,1,1,13.31,1,1.0,0,1.0,0,1.0,0,1.0
24,23,'1',0.01954,0.05007,0.00171,44.9,44.9,44.9,0.0,0.0,0.0,0.0,1,1,6.04,1,1.0,0,1.0,0,1.0,0,1.0
25,26,'1',0.0,0.001,0.0,82.8,82.8,82.8,0.0,0.0,0.0,0.0,1,1,0.0,1,1.0,0,1.0,0,1.0,0,1.0
25,69,'1',0.03099,0.08461,0.00075,48.7,48.7,48.7,0.0,0.0,0.0,0.0,1,1,5.05,1,1.0,0,1.0,0,1.0,0,1.0
25,324,'1',0.05501,0.14863,0.0122,64.6,64.6,64.6,0.0,0.0,0.0,0.0,1,1,24.16,1,1.0,0,1.0,0,1.0,0,1.0
25,352,'1',0.00927,0.02691,0.00532,58.3,58.3,58.3,0.0,0.0,0.0,0.0,1,1,7.18,1,1.0,0,1.0,0,1.0,0,1.0
27,28,'1',0.00027,0.00112,0.0,82.8,82.8,82.8,0.0,0.0,0.0,0.0,1,1,0.0,1,1.0,0,1.0,0,1.0,0,1.0
27,303,'1',0.0175,0.04935,0.00133,52.5,52.5,52.5,0.0,0.0,0.0,0.0,1,1,4.9,1,1.0,0,1.0,0,1.0,0,1.0
29,27,'1',0.03729,0.08293,0.00079,55.4,55.4,55.4,0.0,0.0,0.0,0.0,1,1,6.2,1,1.0,0,1.0,0,1.0,0,1.0
29,144,'1',0.01518,0.04249,0.00288,65.3,65.3,65.3,0.0,0.0,0.0,0.0,1,1,7.41,1,1.0,0,1.0,0,1.0,0,1.0
30,121,'1',0.04104,0.11293,0.00424,62.3,62.3,62.3,0.0,0.0,0.0,0.0,1,1,12.97,1,1.0,0,1.0,0,1.0,0,1.0
30,374,'1',0.06457,0.16601,0.00349,59.1,59.1,59.1,0.0,0.0,0.0,0.0,1,1,12.99,1,1.0,0,1.0,0,1.0,0,1.0
32,226,'1',0.02188,0.05892,0.00142,65.4,65.4,65.4,0.0,0.0,0.0,0.0,1,1,5.75,1,1.0,0,1.0,0,1.0,0,1.0
32,287,'1',0.04149,0.07396,0.00185,71.6,71.6,71.6,0.0,0.0,0.0,0.0,1,1,7.14,1,1.0,0,1.0,0,1.0,0,1.0
33,32,'1',0.02363,0.05725,0.00363,100.0,100.0,100.0,0.0,0.0,0.0,0.0,1,1,9.07,1,1.0,0,1.0,0,1.0,0,1.0
33,45,'1',0.01601,0.04724,0.00496,61.8,61.8,61.8,0.0,0.0,0.0,0.0,1,1,8.34,1,1.0,0,1.0,0,1.0,0,1.0
34,36,'1',0.00027,0.001,0.0,200.0,200.0,200.0,0.0,0.0,0.0,0.0,1,1,0.0,1,1.0,0,1.0,0,1.0,0,1.0
35,149,'1',0.00928,0.02211,0.00043,66.4,66.4,66.4,0.0,0.0,0.0,0.0,1,1,2.4,1,1.0,0,1.0,0,1.0,0,1.0
35,151,'1',0.00318,0.01048,0.00051,82.7,82.7,82.7,0.0,0.0,0.0,0.0,1,1,1.39,1,1.0,0,1.0,0,1.0,0,1.0
35,151,'2',0.00318,0.01048,0.00051,82.7,82.7,82.7,0.0,0.0,0.0,0.0,1,1,1.39,1,1.0,0,1.0,0,1.0,0,1.0
36,37,'1',0.00631,0.03158,0.00755,243.3,243.3,243.3,0.0,0.0,0.0,0.0,1,1,9.57,1,1.0,0,1.0,0,1.0,0,1.0
36,114,'1',0.00504,0.03449,0.13787,350.0,350.0,350.0,0.0,0.0,0.0,0.0,1,1,36.05,1,1.0,0,1.0,0,1.0,0,1.0
36,114,'2',0.00504,0.03449,0.13787,350.0,350.0,350.0,0.0,0.0,0.0,0.0,1,1,36.05,1,1.0,0,1.0,0,1.0,0,1.0
36,411,'1',0.00629,0.03107,0.00742,264.1,264.1,264.1,0.0,0.0,0.0,0.0,1,1,10.08,1,1.0,0,1.0,0,1.0,0,1.0
37,136,'1',0.00514,0.02521,0.03353,226.0,226.0,226.0,0.0,0.0,0.0,0.0,1,1,15.66,1,1.0,0,1.0,0,1.0,0,1.0
38,145,'1',0.00866,0.01765,0.00018,62.1,62.1,62.1,0.0,0.0,0.0,0.0,1,1,1.36,1,1.0,0,1.0,0,1.0,0,1.0
38,281,'1',0.01075,0.03111,0.00205,55.7,55.7,55.7,0.0,0.0,0.0,0.0,1,1,4.96,1,1.0,0,1.0,0,1.0,0,1.0
39,35,'1',0.01386,0.03798,0.00105,68.3,68.3,68.3,0.0,0.0,0.0,0.0,1,1,3.88,1,1.0,0,1.0,0,1.0,0,1.0
39,40,'1',0.0,0.001,0.0,82.8,82.8,82.8,0.0,0.0,0.0,0.0,1,1,0.0,1,1.0,0,1.0,0,1.0,0,1.0
39,41,'1',0.01749,0.05347,0.00123,68.1,68.1,68.1,0.0,0.0,0.0,0.0,1,1,5.08,1,1.0,0,1.0,0,1.0,0,1.0
40,146,'1',0.01479,0.02784,0.00026,59.1,59.1,59.1,0.0,0.0,0.0,0.0,1,1,0.0,1,1.0,0,1.0,0,1.0,0,1.0
41,412,'1',0.01536,0.04278,0.0005,72.7,72.7,72.7,0.0,0.0,0.0,0.0,1,1,3.13,1,1.0,0,1.0,0,1.0,0,1.0
42,43,'1',0.00023,0.00116,0.0,82.8,82.8,82.8,0.0,0.0,0.0,0.0,1,1,0.0,1,1.0,0,1.0,0,1.0,0,1.0
42,147,'1',0.01021,0.02569,0.00031,85.0,85.0,85.0,0.0,0.0,0.0,0.0,1,1,1.89,1,1.0,0,1.0,0,1.0,0,1.0
42,172,'1',0.01034,0.02954,0.00188,55.8,55.8,55.8,0.0,0.0,0.0,0.0,1,1,4.8,1,1.0,0,1.0,0,1.0,0,1.0
44,45,'1',0.00028,0.00119,0.0,82.8,82.8,82.8,0.0,0.0,0.0,0.0,1,1,0.0,1,1.0,0,1.0,0,1.0,0,1.0
46,31,'1',0.05038,0.10012,0.00098,53.7,53.7,53.7,0.0,0.0,0.0,0.0,1,1,5.73,1,1.0,0,1.0,0,1.0,0,1.0
47,50,'1',0.0344,0.09608,0.00122,53.3,53.3,53.3,0.0,0.0,0.0,0.0,1,1,6.98,1,1.0,0,1.0,0,1.0,0,1.0
48,49,'1',0.00024,0.00112,0.0,82.8,82.8,82.8,0.0,0.0,0.0,0.0,1,1,0.0,1,1.0,0,1.0,0,1.0,0,1.0
49,50,'1',0.02865,0.06052,0.00083,50.0,50.0,50.0,0.0,0.0,0.0,0.0,1,1,4.61,1,1.0,0,1.0,0,1.0,0,1.0
49,1700,'1',0.04331,0.11095,0.00129,55.9,55.9,55.9,0.0,0.0,0.0,0.0,1,1,7.51,1,1.0,0,1.0,0,1.0,0,1.0
50,51,'1',0.00027,0.00119,0.0,82.8,82.8,82.8,0.0,0.0,0.0,0.0,1,1,0.0,1,1.0,0,1.0,0,1.0,0,1.0
50,1705,'1',0.01821,0.04815,0.00344,57.0,57.0,57.0,0.0,0.0,0.0,0.0,1,1,7.42,1,1.0,0,1.0,0,1.0,0,1.0
52,297,'1',0.03139,0.07961,0.00091,55.5,55.5,55.5,0.0,0.0,0.0,0.0,1,1,6.11,1,1.0,0,1.0,0,1.0,0,1.0
52,1907,'1',0.07425,0.14976,0.0053,58.1,58.1,58.1,0.0,0.0,0.0,0.0,1,1,14.77,1,1.0,0,1.0,0,1.0,0,1.0
53,52,'1',0.0326,0.07476,0.00221,47.7,47.7,47.7,0.0,0.0,0.0,0.0,1,1,7.63,1,1.0,0,1.0,0,1.0,0,1.0
53,54,'1',0.00027,0.00112,0.0,82.8,82.8,82.8,0.0,0.0,0.0,0.0,1,1,0.0,1,1.0,0,1.0,0,1.0,0,1.0
55,57,'1',0.0003,0.0011,0.0,414.0,414.0,414.0,0.0,0.0,0.0,0.0,1,1,0.0,1,1.0,0,1.0,0,1.0,0,1.0
55,1614,'1',0.00798,0.04074,0.02479,183.5,183.5,183.5,0.0,0.0,0.0,0.0,1,1,17.41,1,1.0,0,1.0,0,1.0,0,1.0
58,56,'1',0.02677,0.04946,0.00059,59.6,59.6,59.6,0.0,0.0,0.0,0.0,1,1,3.35,1,1.0,0,1.0,0,1.0,0,1.0
59,56,'1',0.01262,0.03339,0.00061,65.5,65.5,65.5,0.0,0.0,0.0,0.0,1,1,3.05,1,1.0,0,1.0,0,1.0,0,1.0
60,62,'1',0.03515,0.10136,0.00063,54.1,54.1,54.1,0.0,0.0,0.0,0.0,1,1,5.27,1,1.0,0,1.0,0,1.0,0,1.0
62,1603,'1',0.03241,0.07489,0.0092,49.6,49.6,49.6,0.0,0.0,0.0,0.0,1,1,13.98,1,1.0,0,1.0,0,1.0,0,1.0
63,67,'1',0.02682,0.06666,0.00147,62.2,62.2,62.2,0.0,0.0,0.0,0.0,1,1,5.95,1,1.0,0,1.0,0,1.0,0,1.0
64,91,'1',0.0235,0.05751,0.00114,55.9,55.9,55.9,0.0,0.0,0.0,0.0,1,1,5.19,1,1.0,0,1.0,0,1.0,0,1.0
65,66,'1',0.03205,0.08264,0.00173,60.6,60.6,60.6,0.0,0.0,0.0,0.0,1,1,6.92,1,1.0,0,1.0,0,1.0,0,1.0
65,109,'1',0.0582,0.10902,0.00112,57.9,57.9,57.9,0.0,0.0,0.0,0.0,1,1,6.98,1,1.0,0,1.0,0,1.0,0,1.0
67,71,'1',0.03739,0.09462,0.00638,78.4,78.4,78.4,0.0,0.0,0.0,0.0,1,1,13.19,1,1.0,0,1.0,0,1.0,0,1.0
68,69,'1',0.03605,0.07795,0.00168,55.9,55.9,55.9,0.0,0.0,0.0,0.0,1,1,7.15,1,1.0,0,1.0,0,1.0,0,1.0
68,269,'1',0.01673,0.04281,0.00189,52.3,52.3,52.3,0.0,0.0,0.0,0.0,1,1,5.86,1,1.0,0,1.0,0,1.0,0,1.0
69,22,'1',0.02552,0.06993,0.00167,52.1,52.1,52.1,0.0,0.0,0.0,0.0,1,1,7.44,1,1.0,0,1.0,0,1.0,0,1.0
70,72,'1',0.00024,0.00118,0.0,165.6,165.6,165.6,0.0,0.0,0.0,0.0,1,1,0.0,1,1.0,0,1.0,0,1.0,0,1.0
70,1908,'1',0.00723,0.03362,0.01815,187.2,187.2,187.2,0.0,0.0,0.0,0.0,1,1,13.36,1,1.0,0,1.0,0,1.0,0,1.0
71,107,'1',0.05494,0.10268,0.0026,57.7,57.7,57.7,0.0,0.0,0.0,0.0,1,1,9.75,1,1.0,0,1.0,0,1.0,0,1.0
73,75,'1',0.00028,0.00107,0.0,165.6,165.6,165.6,0.0,0.0,0.0,0.0,1,1,0.0,1,1.0,0,1.0,0,1.0,0,1.0
75,84,'1',0.00521,0.02882,0.00405,208.8,208.8,208.8,0.0,0.0,0.0,0.0,1,1,7.44,1,1.0,0,1.0,0,1.0,0,1.0
76,2020,'1',0.0024,0.02943,0.38186,1035.0,1035.0,1035.0,0.0,0.0,0.0,0.0,1,1,59.77,1,1.0,0,1.0,0,1.0,0,1.0
77,84,'1',0.00479,0.03165,0.0031,210.6,210.6,210.6,0.0,0.0,0.0,0.0,1,1,5.69,1,1.0,0,1.0,0,1.0,0,1.0
77,85,'1',0.00594,0.03048,0.00769,254.8,254.8,254.8,0.0,0.0,0.0,0.0,1,1,8.92,1,1.0,0,1.0,0,1.0,0,1.0
78,94,'1',0.00615,0.01244,0.00026,69.3,69.3,69.3,0.0,0.0,0.0,0.0,1,1,0.0,1,1.0,0,1.0,0,1.0,0,1.0
78,95,'1',0.03284,0.07257,0.00169,71.9,71.9,71.9,0.0,0.0,0.0,0.0,1,1,6.89,1,1.0,0,1.0,0,1.0,0,1.0
78,97,'1',0.02774,0.05582,0.00315,62.5,62.5,62.5,0.0,0.0,0.0,0.0,1,1,8.01,1,1.0,0,1.0,0,1.0,0,1.0
79,78,'1',0.02001,0.05675,0.00131,53.9,53.9,53.9,0.0,0.0,0.0,0.0,1,1,5.41,1,1.0,0,1.0,0,1.0,0,1.0
79,86,'1',0.01566,0.03864,0.00125,67.1,67.1,67.1,0.0,0.0,0.0,0.0,1,1,4.67,1,1.0,0,1.0,0,1.0,0,1.0
80,376,'1',0.03789,0.09223,0.00152,66.3,66.3,66.3,0.0,0.0,0.0,0.0,1,1,8.1,1,1.0,0,1.0,0,1.0,0,1.0
81,80,'1',0.02967,0.07681,0.00046,64.2,64.2,64.2,0.0,0.0,0.0,0.0,1,1,4.42,1,1.0,0,1.0,0,1.0,0,1.0
81,93,'1',0.01988,0.04902,0.00211,58.3,58.3,58.3,0.0,0.0,0.0,0.0,1,1,7.02,1,1.0,0,1.0,0,1.0,0,1.0
82,84,'1',0.00029,0.00102,0.0,414.0,414.0,414.0,0.0,0.0,0.0,0.0,1,1,0.0,1,1.0,0,1.0,0,1.0,0,1.0
83,81,'1',0.00381,0.01076,0.0003,57.4,57.4,57.4,0.0,0.0,0.0,0.0,1,1,1.07,1,1.0,0,1.0,0,1.0,0,1.0
84,96,'1',0.00631,0.03691,0.01119,194.9,194.9,194.9,0.0,0.0,0.0,0.0,1,1,12.93,1,1.0,0,1.0,0,1.0,0,1.0
85,87,'1',0.00024,0.00113,0.0,165.6,165.6,165.6,0.0,0.0,0.0,0.0,1,1,0.0,1,1.0,0,1.0,0,1.0,0,1.0
85,114,'1',0.00742,0.04285,0.08388,261.2,261.2,261.2,0.0,0.0,0.0,0.0,1,1,33.39,1,1.0,0,1.0,0,1.0,0,1.0
85,1759,'1',0.00469,0.02961,0.03061,325.0,325.0,325.0,0.0,0.0,0.0,0.0,1,1,16.4,1,1.0,0,1.0,0,1.0,0,1.0
86,80,'1',0.01903,0.045,0.00115,62.2,62.2,62.2,0.0,0.0,0.0,0.0,1,1,5.09,1,1.0,0,1.0,0,1.0,0,1.0
88,1759,'1',0.01016,0.06325,0.01348,187.2,187.2,187.2,0.0,0.0,0.0,0.0,1,1,16.14,1,1.0,0,1.0,0,1.0,0,1.0
89,376,'1',0.0307,0.08586,0.00065,57.5,57.5,57.5,0.0,0.0,0.0,0.0,1,1,5.36,1,1.0,0,1.0,0,1.0,0,1.0
90,92,'1',0.00023,0.00103,0.0,414.0,414.0,414.0,0.0,0.0,0.0,0.0,1,1,0.0,1,1.0,0,1.0,0,1.0,0,1.0
92,77,'1',0.00549,0.03185,0.00652,216.6,216.6,216.6,0.0,0.0,0.0,0.0,1,1,8.99,1,1.0,0,1.0,0,1.0,0,1.0
93,78,'1',0.00615,0.01244,0.00026,69.3,69.3,69.3,0.0,0.0,0.0,0.0,1,1,1.02,1,1.0,0,1.0,0,1.0,0,1.0
93,94,'1',0.0,0.001,0.0,82.8,82.8,82.8,0.0,0.0,0.0,0.0,1,1,0.0,1,1.0,0,1.0,0,1.0,0,1.0
94,81,'1',0.01988,0.04902,0.00211,58.3,58.3,58.3,0.0,0.0,0.0,0.0,1,1,0.0,1,1.0,0,1.0,0,1.0,0,1.0
95,74,'1',0.01816,0.04437,0.00069,58.9,58.9,58.9,0.0,0.0,0.0,0.0,1,1,3.65,1,1.0,0,1.0,0,1.0,0,1.0
96,77,'1',0.00225,0.01514,0.0116,210.8,210.8,210.8,0.0,0.0,0.0,0.0,1,1,9.14,1,1.0,0,1.0,0,1.0,0,1.0
97,71,'1',0.03271,0.08645,0.00135,63.9,63.9,63.9,0.0,0.0,0.0,0.0,1,1,7.04,1,1.0,0,1.0,0,1.0,0,1.0
98,99,'1',0.00897,0.01897,0.00274,60.1,60.1,60.1,0.0,0.0,0.0,0.0,1,1,5.06,1,1.0,0,1.0,0,1.0,0,1.0
98,323,'1',0.01478,0.05109,0.01283,61.7,61.7,61.7,0.0,0.0,0.0,0.0,1,1,13.57,1,1.0,0,1.0,0,1.0,0,1.0
...